*SPEF "IEEE 1481-1998"
*DESIGN "mips"
*DATE "Fri Jun 15 11:49:43 2018"
*VENDOR "Cadence Design Systems, Inc."
*PROGRAM "Innovus"
*VERSION "16.21-s078_1"
*DESIGN_FLOW "COUPLING C" "PIN_CAP NONE" "NAME_SCOPE LOCAL"
*DIVIDER /
*DELIMITER :
*BUS_DELIMITER []
*T_UNIT 1 NS
*C_UNIT 1 PF
*R_UNIT 1 OHM
*L_UNIT 1 HENRY

// MMMC spef file for corner 'default_rc_corner'

*NAME_MAP

*1 dp/ir2/FE_PHN35_n27
*2 dp/ir2/FE_PHN34_n30
*3 dp/ir2/FE_PHN33_n26
*4 dp/ir1/FE_PHN32_n28
*5 dp/ir1/FE_PHN31_n29
*6 dp/ir1/FE_PHN30_n27
*7 cont/FE_PHN29_N16
*8 cont/FE_PHN28_N18
*9 CTS_4
*10 dp/CTS_16
*11 dp/CTS_15
*12 dp/CTS_14
*13 dp/rf/CTS_4
*14 dp/CTS_13
*15 dp/FE_OCPN27_aluresult_6
*16 dp/alunit/add_1_root_add_263_2/FE_RN_5_0
*17 dp/alunit/add_1_root_add_263_2/FE_RN_4_0
*18 dp/alunit/add_1_root_add_263_2/FE_RN_3_0
*19 dp/zd/FE_RN_1_0
*20 dp/alunit/FE_RN_0_0
*21 dp/ir0/FE_OFN28_irwrite_0
*22 dp/src1mux/FE_OFN26_alusrca
*23 cont/FE_OFN25_aluop_1
*24 cont/FE_OFN24_aluop_1
*25 dp/rf/FE_OFN23_n142
*26 dp/rf/FE_OFN22_n133
*27 dp/rf/FE_OFN21_n124
*28 dp/rf/FE_OFN20_n115
*29 dp/rf/FE_OFN19_n106
*30 dp/rf/FE_OFN18_n97
*31 dp/rf/FE_OFN17_n79
*32 dp/rf/FE_OFN16_wd_0
*33 dp/rf/FE_OFN15_wd_1
*34 dp/rf/FE_OFN13_wd_3
*35 dp/rf/FE_OFN12_wd_4
*36 dp/rf/FE_OFN9_wd_7
*37 dp/FE_RN_4
*38 dp/FE_OFN7_SYNOPSYS_UNCONNECTED__9
*39 dp/FE_RN_3
*40 dp/FE_OFN5_SYNOPSYS_UNCONNECTED__8
*41 dp/FE_RN_2
*42 dp/rf/FE_OFN3_SYNOPSYS_UNCONNECTED__4
*43 dp/FE_RN_1
*44 dp/rf/FE_OFN1_SYNOPSYS_UNCONNECTED__3
*45 cont/FE_OFN0_pcsource_1
*46 memdata[7]
*47 memdata[6]
*48 memdata[5]
*49 memdata[4]
*50 memdata[3]
*51 memdata[2]
*52 memdata[1]
*53 memdata[0]
*54 adr[7]
*55 adr[6]
*56 adr[5]
*57 adr[4]
*58 adr[3]
*59 adr[2]
*60 adr[1]
*61 adr[0]
*62 writedata[7]
*63 writedata[6]
*64 writedata[5]
*65 writedata[4]
*66 writedata[3]
*67 writedata[2]
*68 writedata[1]
*69 writedata[0]
*70 clk
*71 reset
*72 memread
*73 memwrite
*74 zero
*75 alusrca
*76 memtoreg
*77 iord
*78 pcen
*79 regwrite
*80 regdst
*81 instr[31]
*82 instr[30]
*83 instr[29]
*84 instr[28]
*85 instr[27]
*86 instr[26]
*87 instr[5]
*88 instr[4]
*89 instr[3]
*90 instr[2]
*91 instr[1]
*92 instr[0]
*93 pcsource[1]
*94 alusrcb[1]
*95 alusrcb[0]
*96 aluop[1]
*97 aluop[0]
*98 irwrite[3]
*99 irwrite[2]
*100 irwrite[1]
*101 irwrite[0]
*102 alucont[2]
*103 alucont[1]
*104 alucont[0]
*105 SYNOPSYS_UNCONNECTED__2
*106 SYNOPSYS_UNCONNECTED__7
*107 SYNOPSYS_UNCONNECTED__12
*108 SYNOPSYS_UNCONNECTED__13
*109 SYNOPSYS_UNCONNECTED__14
*110 SYNOPSYS_UNCONNECTED__18
*111 SYNOPSYS_UNCONNECTED__19
*112 cont/N15
*113 cont/N16
*114 cont/N17
*115 cont/N18
*116 cont/n10
*117 cont/n11
*118 cont/n12
*119 cont/n13
*120 cont/n19
*121 cont/n20
*122 cont/n21
*123 cont/n22
*124 cont/n23
*125 cont/n24
*126 cont/n25
*127 cont/n26
*128 cont/n27
*129 cont/n28
*130 cont/n29
*131 cont/n30
*132 cont/n31
*133 cont/n32
*134 cont/n33
*135 cont/n34
*136 cont/n35
*137 cont/n36
*138 cont/n37
*139 cont/n38
*140 cont/n39
*141 cont/n40
*142 cont/n41
*143 cont/n42
*144 cont/n43
*145 cont/n44
*146 cont/n45
*147 cont/n46
*148 cont/n47
*149 cont/n48
*150 cont/n49
*151 cont/n50
*152 cont/n1
*153 cont/n2
*154 cont/n3
*155 cont/n4
*156 cont/n16
*157 cont/n17
*158 cont/state[3]
*159 cont/state[2]
*160 cont/state[1]
*161 cont/state[0]
*162 ac/n6
*163 ac/n7
*164 ac/n8
*165 ac/n9
*166 ac/n10
*167 ac/n11
*168 ac/n12
*169 ac/n13
*170 ac/n1
*171 ac/n2
*172 ac/n3
*173 ac/n4
*174 dp/wa[2]
*175 dp/wa[1]
*176 dp/wa[0]
*177 dp/nextpc[7]
*178 dp/nextpc[6]
*179 dp/nextpc[5]
*180 dp/nextpc[4]
*181 dp/nextpc[3]
*182 dp/nextpc[2]
*183 dp/nextpc[1]
*184 dp/nextpc[0]
*185 dp/pc[7]
*186 dp/pc[6]
*187 dp/pc[5]
*188 dp/pc[4]
*189 dp/pc[3]
*190 dp/pc[2]
*191 dp/pc[1]
*192 dp/pc[0]
*193 dp/md[7]
*194 dp/md[6]
*195 dp/md[5]
*196 dp/md[4]
*197 dp/md[3]
*198 dp/md[2]
*199 dp/md[1]
*200 dp/md[0]
*201 dp/rd1[7]
*202 dp/rd1[6]
*203 dp/rd1[5]
*204 dp/rd1[4]
*205 dp/rd1[3]
*206 dp/rd1[2]
*207 dp/rd1[1]
*208 dp/rd1[0]
*209 dp/a[7]
*210 dp/a[6]
*211 dp/a[5]
*212 dp/a[4]
*213 dp/a[3]
*214 dp/a[2]
*215 dp/a[1]
*216 dp/a[0]
*217 dp/rd2[7]
*218 dp/rd2[6]
*219 dp/rd2[5]
*220 dp/rd2[4]
*221 dp/rd2[3]
*222 dp/rd2[2]
*223 dp/rd2[1]
*224 dp/rd2[0]
*225 dp/aluresult[7]
*226 dp/aluresult[6]
*227 dp/aluresult[5]
*228 dp/aluresult[4]
*229 dp/aluresult[3]
*230 dp/aluresult[2]
*231 dp/aluresult[1]
*232 dp/aluresult[0]
*233 dp/aluout[7]
*234 dp/aluout[6]
*235 dp/aluout[5]
*236 dp/aluout[4]
*237 dp/aluout[3]
*238 dp/aluout[2]
*239 dp/aluout[1]
*240 dp/aluout[0]
*241 dp/src1[7]
*242 dp/src1[6]
*243 dp/src1[5]
*244 dp/src1[4]
*245 dp/src1[3]
*246 dp/src1[2]
*247 dp/src1[1]
*248 dp/src1[0]
*249 dp/src2[7]
*250 dp/src2[6]
*251 dp/src2[5]
*252 dp/src2[4]
*253 dp/src2[3]
*254 dp/src2[2]
*255 dp/src2[1]
*256 dp/src2[0]
*257 dp/wd[7]
*258 dp/wd[6]
*259 dp/wd[5]
*260 dp/wd[4]
*261 dp/wd[3]
*262 dp/wd[2]
*263 dp/wd[1]
*264 dp/wd[0]
*265 dp/regmux/n6
*266 dp/regmux/n7
*267 dp/regmux/n8
*268 dp/regmux/n4
*269 dp/ir0/n1
*270 dp/ir0/n2
*271 dp/ir0/n3
*272 dp/ir0/n4
*273 dp/ir0/n5
*274 dp/ir0/n6
*275 dp/ir0/n7
*276 dp/ir0/n8
*277 dp/ir0/n9
*278 dp/ir0/n10
*279 dp/ir0/n11
*280 dp/ir0/n12
*281 dp/ir0/n13
*282 dp/ir0/n14
*283 dp/ir0/n15
*284 dp/ir0/n16
*285 dp/ir0/n17
*286 dp/ir0/n18
*287 dp/ir0/n19
*288 dp/ir0/n20
*289 dp/ir0/n21
*290 dp/ir0/n22
*291 dp/ir0/n23
*292 dp/ir0/n24
*293 dp/ir1/n27
*294 dp/ir1/n28
*295 dp/ir1/n29
*296 dp/ir1/n36
*297 dp/ir1/n37
*298 dp/ir1/n38
*299 dp/ir1/n43
*300 dp/ir1/n44
*301 dp/ir1/n45
*302 dp/ir2/n25
*303 dp/ir2/n26
*304 dp/ir2/n27
*305 dp/ir2/n30
*306 dp/ir2/n31
*307 dp/ir2/n32
*308 dp/ir2/n33
*309 dp/ir2/n34
*310 dp/ir2/n35
*311 dp/ir2/n38
*312 dp/ir2/n39
*313 dp/ir2/n40
*314 dp/ir2/n41
*315 dp/ir2/n42
*316 dp/ir2/n43
*317 dp/ir2/n46
*318 dp/ir2/n47
*319 dp/ir2/n48
*320 dp/ir3/n25
*321 dp/ir3/n26
*322 dp/ir3/n27
*323 dp/ir3/n28
*324 dp/ir3/n29
*325 dp/ir3/n30
*326 dp/ir3/n35
*327 dp/ir3/n36
*328 dp/ir3/n37
*329 dp/ir3/n38
*330 dp/ir3/n39
*331 dp/ir3/n40
*332 dp/ir3/n41
*333 dp/ir3/n42
*334 dp/ir3/n43
*335 dp/ir3/n44
*336 dp/ir3/n45
*337 dp/ir3/n46
*338 dp/pcreg/n19
*339 dp/pcreg/n20
*340 dp/pcreg/n21
*341 dp/pcreg/n22
*342 dp/pcreg/n23
*343 dp/pcreg/n24
*344 dp/pcreg/n25
*345 dp/pcreg/n26
*346 dp/pcreg/n27
*347 dp/pcreg/n28
*348 dp/pcreg/n1
*349 dp/pcreg/n10
*350 dp/pcreg/n11
*351 dp/pcreg/n12
*352 dp/pcreg/n13
*353 dp/pcreg/n14
*354 dp/pcreg/n15
*355 dp/pcreg/n16
*356 dp/pcreg/n17
*357 dp/adrmux/n11
*358 dp/adrmux/n12
*359 dp/adrmux/n13
*360 dp/adrmux/n14
*361 dp/adrmux/n15
*362 dp/adrmux/n16
*363 dp/adrmux/n17
*364 dp/adrmux/n18
*365 dp/adrmux/n9
*366 dp/src1mux/n10
*367 dp/src1mux/n18
*368 dp/src1mux/n19
*369 dp/src1mux/n20
*370 dp/src1mux/n21
*371 dp/src1mux/n22
*372 dp/src1mux/n23
*373 dp/src1mux/n24
*374 dp/src2mux/n3
*375 dp/src2mux/n4
*376 dp/src2mux/n5
*377 dp/src2mux/n6
*378 dp/src2mux/n7
*379 dp/src2mux/n8
*380 dp/src2mux/n9
*381 dp/src2mux/n10
*382 dp/src2mux/n11
*383 dp/src2mux/n12
*384 dp/src2mux/n13
*385 dp/src2mux/n14
*386 dp/src2mux/n15
*387 dp/src2mux/n16
*388 dp/src2mux/n17
*389 dp/src2mux/n18
*390 dp/src2mux/n19
*391 dp/src2mux/n20
*392 dp/src2mux/n21
*393 dp/src2mux/n22
*394 dp/src2mux/n1
*395 dp/pcmux/n1
*396 dp/pcmux/n22
*397 dp/pcmux/n24
*398 dp/pcmux/n25
*399 dp/pcmux/n26
*400 dp/pcmux/n27
*401 dp/pcmux/n28
*402 dp/pcmux/n29
*403 dp/pcmux/n30
*404 dp/pcmux/n31
*405 dp/pcmux/n32
*406 dp/pcmux/n33
*407 dp/pcmux/n34
*408 dp/pcmux/n35
*409 dp/pcmux/n36
*410 dp/pcmux/n37
*411 dp/pcmux/n38
*412 dp/pcmux/n39
*413 dp/pcmux/n40
*414 dp/wdmux/n9
*415 dp/rf/RAM\[7\]\[7\]
*416 dp/rf/RAM\[7\]\[6\]
*417 dp/rf/RAM\[7\]\[5\]
*418 dp/rf/RAM\[7\]\[4\]
*419 dp/rf/RAM\[7\]\[3\]
*420 dp/rf/RAM\[7\]\[2\]
*421 dp/rf/RAM\[7\]\[1\]
*422 dp/rf/RAM\[7\]\[0\]
*423 dp/rf/RAM\[6\]\[7\]
*424 dp/rf/RAM\[6\]\[6\]
*425 dp/rf/RAM\[6\]\[5\]
*426 dp/rf/RAM\[6\]\[4\]
*427 dp/rf/RAM\[6\]\[3\]
*428 dp/rf/RAM\[6\]\[2\]
*429 dp/rf/RAM\[6\]\[1\]
*430 dp/rf/RAM\[6\]\[0\]
*431 dp/rf/RAM\[5\]\[7\]
*432 dp/rf/RAM\[5\]\[6\]
*433 dp/rf/RAM\[5\]\[5\]
*434 dp/rf/RAM\[5\]\[4\]
*435 dp/rf/RAM\[5\]\[3\]
*436 dp/rf/RAM\[5\]\[2\]
*437 dp/rf/RAM\[5\]\[1\]
*438 dp/rf/RAM\[5\]\[0\]
*439 dp/rf/RAM\[4\]\[7\]
*440 dp/rf/RAM\[4\]\[6\]
*441 dp/rf/RAM\[4\]\[5\]
*442 dp/rf/RAM\[4\]\[4\]
*443 dp/rf/RAM\[4\]\[3\]
*444 dp/rf/RAM\[4\]\[2\]
*445 dp/rf/RAM\[4\]\[1\]
*446 dp/rf/RAM\[4\]\[0\]
*447 dp/rf/RAM\[3\]\[7\]
*448 dp/rf/RAM\[3\]\[6\]
*449 dp/rf/RAM\[3\]\[5\]
*450 dp/rf/RAM\[3\]\[4\]
*451 dp/rf/RAM\[3\]\[3\]
*452 dp/rf/RAM\[3\]\[2\]
*453 dp/rf/RAM\[3\]\[1\]
*454 dp/rf/RAM\[3\]\[0\]
*455 dp/rf/RAM\[2\]\[7\]
*456 dp/rf/RAM\[2\]\[6\]
*457 dp/rf/RAM\[2\]\[5\]
*458 dp/rf/RAM\[2\]\[4\]
*459 dp/rf/RAM\[2\]\[3\]
*460 dp/rf/RAM\[2\]\[2\]
*461 dp/rf/RAM\[2\]\[1\]
*462 dp/rf/RAM\[2\]\[0\]
*463 dp/rf/RAM\[1\]\[7\]
*464 dp/rf/RAM\[1\]\[6\]
*465 dp/rf/RAM\[1\]\[5\]
*466 dp/rf/RAM\[1\]\[4\]
*467 dp/rf/RAM\[1\]\[3\]
*468 dp/rf/RAM\[1\]\[2\]
*469 dp/rf/RAM\[1\]\[1\]
*470 dp/rf/RAM\[1\]\[0\]
*471 dp/rf/RAM\[0\]\[7\]
*472 dp/rf/RAM\[0\]\[6\]
*473 dp/rf/RAM\[0\]\[5\]
*474 dp/rf/RAM\[0\]\[4\]
*475 dp/rf/RAM\[0\]\[3\]
*476 dp/rf/RAM\[0\]\[2\]
*477 dp/rf/RAM\[0\]\[1\]
*478 dp/rf/RAM\[0\]\[0\]
*479 dp/rf/N89
*480 dp/rf/N90
*481 dp/rf/N91
*482 dp/rf/N92
*483 dp/rf/N93
*484 dp/rf/N94
*485 dp/rf/N95
*486 dp/rf/N96
*487 dp/rf/N99
*488 dp/rf/N100
*489 dp/rf/N101
*490 dp/rf/N102
*491 dp/rf/N103
*492 dp/rf/N104
*493 dp/rf/N105
*494 dp/rf/N106
*495 dp/rf/n77
*496 dp/rf/n78
*497 dp/rf/n79
*498 dp/rf/n80
*499 dp/rf/n81
*500 dp/rf/n82
*501 dp/rf/n83
*502 dp/rf/n84
*503 dp/rf/n85
*504 dp/rf/n86
*505 dp/rf/n87
*506 dp/rf/n88
*507 dp/rf/n89
*508 dp/rf/n90
*509 dp/rf/n91
*510 dp/rf/n92
*511 dp/rf/n93
*512 dp/rf/n94
*513 dp/rf/n95
*514 dp/rf/n96
*515 dp/rf/n97
*516 dp/rf/n98
*517 dp/rf/n99
*518 dp/rf/n100
*519 dp/rf/n101
*520 dp/rf/n102
*521 dp/rf/n103
*522 dp/rf/n104
*523 dp/rf/n105
*524 dp/rf/n106
*525 dp/rf/n107
*526 dp/rf/n108
*527 dp/rf/n109
*528 dp/rf/n110
*529 dp/rf/n111
*530 dp/rf/n112
*531 dp/rf/n113
*532 dp/rf/n114
*533 dp/rf/n115
*534 dp/rf/n116
*535 dp/rf/n117
*536 dp/rf/n118
*537 dp/rf/n119
*538 dp/rf/n120
*539 dp/rf/n121
*540 dp/rf/n122
*541 dp/rf/n123
*542 dp/rf/n124
*543 dp/rf/n125
*544 dp/rf/n126
*545 dp/rf/n127
*546 dp/rf/n128
*547 dp/rf/n129
*548 dp/rf/n130
*549 dp/rf/n131
*550 dp/rf/n132
*551 dp/rf/n133
*552 dp/rf/n134
*553 dp/rf/n135
*554 dp/rf/n136
*555 dp/rf/n137
*556 dp/rf/n138
*557 dp/rf/n139
*558 dp/rf/n140
*559 dp/rf/n141
*560 dp/rf/n142
*561 dp/rf/n143
*562 dp/rf/n144
*563 dp/rf/n145
*564 dp/rf/n146
*565 dp/rf/n147
*566 dp/rf/n148
*567 dp/rf/n149
*568 dp/rf/n150
*569 dp/rf/n151
*570 dp/rf/n152
*571 dp/rf/n153
*572 dp/rf/n154
*573 dp/rf/n155
*574 dp/rf/n156
*575 dp/rf/n157
*576 dp/rf/n158
*577 dp/rf/n159
*578 dp/rf/n160
*579 dp/rf/n161
*580 dp/rf/n162
*581 dp/rf/n163
*582 dp/rf/n164
*583 dp/rf/n165
*584 dp/rf/n166
*585 dp/rf/n167
*586 dp/rf/n168
*587 dp/rf/n169
*588 dp/rf/n170
*589 dp/rf/n171
*590 dp/rf/n172
*591 dp/rf/n173
*592 dp/rf/n174
*593 dp/rf/n175
*594 dp/rf/n176
*595 dp/rf/n177
*596 dp/rf/n178
*597 dp/rf/n179
*598 dp/rf/n180
*599 dp/rf/n181
*600 dp/rf/n182
*601 dp/rf/n183
*602 dp/rf/n184
*603 dp/rf/n185
*604 dp/rf/n186
*605 dp/rf/n187
*606 dp/rf/n188
*607 dp/rf/n189
*608 dp/rf/n190
*609 dp/rf/n191
*610 dp/rf/n192
*611 dp/rf/n193
*612 dp/rf/n194
*613 dp/rf/n195
*614 dp/rf/n196
*615 dp/rf/n197
*616 dp/rf/n198
*617 dp/rf/n199
*618 dp/rf/n200
*619 dp/rf/n201
*620 dp/rf/n202
*621 dp/rf/n203
*622 dp/rf/n204
*623 dp/rf/n205
*624 dp/rf/n206
*625 dp/rf/n207
*626 dp/rf/n208
*627 dp/rf/n209
*628 dp/rf/n210
*629 dp/rf/n211
*630 dp/rf/n212
*631 dp/rf/n213
*632 dp/rf/n214
*633 dp/rf/n1
*634 dp/rf/n66
*635 dp/rf/n67
*636 dp/rf/n68
*637 dp/rf/n69
*638 dp/rf/n70
*639 dp/rf/n71
*640 dp/rf/n72
*641 dp/rf/n73
*642 dp/rf/n74
*643 dp/rf/n75
*644 dp/rf/n76
*645 dp/rf/n215
*646 dp/rf/n216
*647 dp/rf/n217
*648 dp/rf/n218
*649 dp/rf/n219
*650 dp/rf/n220
*651 dp/rf/n221
*652 dp/rf/n222
*653 dp/rf/n223
*654 dp/rf/n224
*655 dp/rf/n225
*656 dp/rf/n226
*657 dp/rf/n227
*658 dp/rf/n228
*659 dp/rf/n229
*660 dp/rf/n230
*661 dp/rf/n231
*662 dp/rf/n232
*663 dp/rf/n233
*664 dp/rf/n234
*665 dp/rf/n235
*666 dp/rf/n236
*667 dp/rf/n237
*668 dp/rf/n238
*669 dp/rf/n239
*670 dp/rf/n240
*671 dp/rf/n241
*672 dp/rf/n242
*673 dp/rf/n243
*674 dp/rf/n244
*675 dp/rf/n245
*676 dp/rf/n246
*677 dp/rf/n247
*678 dp/rf/n248
*679 dp/rf/n249
*680 dp/rf/n250
*681 dp/rf/n254
*682 dp/rf/n255
*683 dp/rf/n256
*684 dp/rf/n257
*685 dp/rf/n258
*686 dp/rf/n259
*687 dp/rf/n260
*688 dp/rf/n261
*689 dp/rf/n262
*690 dp/rf/n263
*691 dp/rf/n264
*692 dp/rf/n265
*693 dp/rf/n266
*694 dp/rf/n267
*695 dp/rf/n268
*696 dp/rf/n269
*697 dp/rf/n270
*698 dp/rf/n271
*699 dp/rf/n272
*700 dp/rf/n273
*701 dp/rf/n274
*702 dp/rf/n275
*703 dp/rf/n276
*704 dp/rf/n277
*705 dp/rf/n278
*706 dp/rf/n279
*707 dp/rf/n280
*708 dp/rf/n281
*709 dp/rf/n282
*710 dp/rf/n283
*711 dp/rf/n284
*712 dp/rf/n285
*713 dp/rf/n286
*714 dp/rf/n287
*715 dp/rf/n288
*716 dp/rf/n289
*717 dp/rf/n290
*718 dp/rf/n291
*719 dp/rf/n292
*720 dp/rf/n293
*721 dp/rf/n294
*722 dp/rf/n295
*723 dp/rf/n296
*724 dp/rf/n297
*725 dp/rf/n298
*726 dp/rf/n299
*727 dp/rf/n300
*728 dp/rf/n301
*729 dp/rf/n313
*730 dp/rf/n314
*731 dp/rf/n315
*732 dp/alunit/n16
*733 dp/alunit/n17
*734 dp/alunit/n18
*735 dp/alunit/n19
*736 dp/alunit/n20
*737 dp/alunit/n21
*738 dp/alunit/n22
*739 dp/alunit/n23
*740 dp/alunit/n24
*741 dp/alunit/n25
*742 dp/alunit/n26
*743 dp/alunit/n27
*744 dp/alunit/n28
*745 dp/alunit/n29
*746 dp/alunit/n30
*747 dp/alunit/n31
*748 dp/alunit/n32
*749 dp/alunit/n33
*750 dp/alunit/n34
*751 dp/alunit/n1
*752 dp/alunit/n2
*753 dp/alunit/n3
*754 dp/alunit/n4
*755 dp/alunit/n5
*756 dp/alunit/n6
*757 dp/alunit/n7
*758 dp/alunit/n8
*759 dp/alunit/n9
*760 dp/alunit/n10
*761 dp/alunit/n11
*762 dp/alunit/n12
*763 dp/alunit/b2[7]
*764 dp/alunit/b2[6]
*765 dp/alunit/b2[5]
*766 dp/alunit/b2[4]
*767 dp/alunit/b2[3]
*768 dp/alunit/b2[2]
*769 dp/alunit/b2[1]
*770 dp/alunit/b2[0]
*771 dp/alunit/sum[7]
*772 dp/alunit/sum[6]
*773 dp/alunit/sum[5]
*774 dp/alunit/sum[4]
*775 dp/alunit/sum[3]
*776 dp/alunit/sum[2]
*777 dp/alunit/sum[1]
*778 dp/alunit/sum[0]
*779 dp/alunit/add_1_root_add_263_2/carry[7]
*780 dp/alunit/add_1_root_add_263_2/carry[6]
*781 dp/alunit/add_1_root_add_263_2/carry[5]
*782 dp/alunit/add_1_root_add_263_2/carry[4]
*783 dp/alunit/add_1_root_add_263_2/carry[3]
*784 dp/alunit/add_1_root_add_263_2/carry[2]
*785 dp/alunit/add_1_root_add_263_2/carry[1]
*786 dp/zd/n1
*787 dp/zd/n2
*788 CTS_ccl_BUF_clk_G0_L1_6
*789 cont/FE_PHC29_N16
*790 cont/FE_PHC28_N18
*791 cont/FE_RC_5_0
*792 cont/FE_RC_2_0
*793 cont/FE_OFC21_aluop_1
*794 cont/FE_OFC20_aluop_1
*795 cont/FE_OFC0_pcsource_1
*796 cont/state_reg\[0\]
*797 cont/state_reg\[1\]
*798 cont/state_reg\[2\]
*799 cont/state_reg\[3\]
*800 cont/U53
*801 cont/U54
*802 cont/U55
*803 cont/U56
*804 cont/U57
*805 cont/U58
*806 cont/U59
*807 cont/U60
*808 cont/U61
*809 cont/U3
*810 cont/U4
*811 cont/U5
*812 cont/U6
*813 cont/U7
*814 cont/U8
*815 cont/U9
*816 cont/U10
*817 cont/U11
*818 cont/U12
*819 cont/U13
*820 cont/U14
*821 cont/U15
*822 cont/U16
*823 cont/U17
*824 cont/U18
*825 cont/U19
*826 cont/U20
*827 cont/U21
*828 cont/U22
*829 cont/U24
*830 cont/U26
*831 cont/U27
*832 cont/U28
*833 cont/U29
*834 cont/U30
*835 cont/U31
*836 cont/U32
*837 cont/U33
*838 cont/U34
*839 cont/U35
*840 cont/U36
*841 cont/U37
*842 cont/U38
*843 cont/U39
*844 cont/U40
*845 cont/U41
*846 cont/U42
*847 cont/U43
*848 cont/U44
*849 cont/U45
*850 cont/U46
*851 cont/U47
*852 cont/U48
*853 cont/U49
*854 cont/U50
*855 cont/U51
*856 cont/U52
*857 ac/FE_OFC22_aluop_1
*858 ac/U3
*859 ac/U4
*860 ac/U6
*861 ac/U7
*862 ac/U8
*863 ac/U9
*864 ac/U10
*865 ac/U11
*866 ac/U12
*867 ac/U13
*868 ac/U14
*869 ac/U15
*870 ac/U16
*871 ac/U17
*872 dp/CTS_ccl_BUF_clk_G0_L1_5
*873 dp/CTS_ccl_BUF_clk_G0_L1_4
*874 dp/CTS_ccl_BUF_clk_G0_L1_3
*875 dp/CTS_ccl_BUF_clk_G0_L1_1
*876 dp/FE_OCPC27_aluresult_6
*877 dp/FE_OFC4_SYNOPSYS_UNCONNECTED__9
*878 dp/FE_OFC3_SYNOPSYS_UNCONNECTED__8
*879 dp/regmux/U1
*880 dp/regmux/U2
*881 dp/regmux/U3
*882 dp/regmux/U4
*883 dp/regmux/U5
*884 dp/regmux/U6
*885 dp/regmux/U7
*886 dp/ir0/FE_OFC26_irwrite_0
*887 dp/ir0/q_reg\[7\]
*888 dp/ir0/q_reg\[6\]
*889 dp/ir0/q_reg\[5\]
*890 dp/ir0/q_reg\[4\]
*891 dp/ir0/q_reg\[3\]
*892 dp/ir0/q_reg\[2\]
*893 dp/ir0/q_reg\[1\]
*894 dp/ir0/q_reg\[0\]
*895 dp/ir0/U2
*896 dp/ir0/U3
*897 dp/ir0/U4
*898 dp/ir0/U5
*899 dp/ir0/U6
*900 dp/ir0/U7
*901 dp/ir0/U8
*902 dp/ir0/U9
*903 dp/ir0/U10
*904 dp/ir0/U11
*905 dp/ir0/U12
*906 dp/ir0/U13
*907 dp/ir0/U14
*908 dp/ir0/U15
*909 dp/ir0/U16
*910 dp/ir0/U17
*911 dp/ir1/FE_PHC32_n28
*912 dp/ir1/FE_PHC31_n29
*913 dp/ir1/FE_PHC30_n27
*914 dp/ir1/q_reg\[5\]
*915 dp/ir1/q_reg\[4\]
*916 dp/ir1/q_reg\[3\]
*917 dp/ir1/U8
*918 dp/ir1/U9
*919 dp/ir1/U10
*920 dp/ir1/U11
*921 dp/ir1/U12
*922 dp/ir1/U13
*923 dp/ir2/FE_PHC35_n27
*924 dp/ir2/FE_PHC34_n30
*925 dp/ir2/FE_PHC33_n26
*926 dp/ir2/q_reg\[7\]
*927 dp/ir2/q_reg\[6\]
*928 dp/ir2/q_reg\[5\]
*929 dp/ir2/q_reg\[2\]
*930 dp/ir2/q_reg\[1\]
*931 dp/ir2/q_reg\[0\]
*932 dp/ir2/U2
*933 dp/ir2/U3
*934 dp/ir2/U4
*935 dp/ir2/U5
*936 dp/ir2/U6
*937 dp/ir2/U7
*938 dp/ir2/U12
*939 dp/ir2/U13
*940 dp/ir2/U14
*941 dp/ir2/U15
*942 dp/ir2/U16
*943 dp/ir2/U17
*944 dp/ir3/q_reg\[7\]
*945 dp/ir3/q_reg\[6\]
*946 dp/ir3/q_reg\[5\]
*947 dp/ir3/q_reg\[4\]
*948 dp/ir3/q_reg\[3\]
*949 dp/ir3/q_reg\[2\]
*950 dp/ir3/U6
*951 dp/ir3/U7
*952 dp/ir3/U8
*953 dp/ir3/U9
*954 dp/ir3/U10
*955 dp/ir3/U11
*956 dp/ir3/U12
*957 dp/ir3/U13
*958 dp/ir3/U14
*959 dp/ir3/U15
*960 dp/ir3/U16
*961 dp/ir3/U17
*962 dp/pcreg/q_reg\[7\]
*963 dp/pcreg/q_reg\[6\]
*964 dp/pcreg/q_reg\[5\]
*965 dp/pcreg/q_reg\[4\]
*966 dp/pcreg/q_reg\[3\]
*967 dp/pcreg/q_reg\[2\]
*968 dp/pcreg/q_reg\[1\]
*969 dp/pcreg/q_reg\[0\]
*970 dp/pcreg/U2
*971 dp/pcreg/U3
*972 dp/pcreg/U4
*973 dp/pcreg/U5
*974 dp/pcreg/U6
*975 dp/pcreg/U7
*976 dp/pcreg/U8
*977 dp/pcreg/U9
*978 dp/pcreg/U10
*979 dp/pcreg/U11
*980 dp/pcreg/U12
*981 dp/pcreg/U13
*982 dp/pcreg/U14
*983 dp/pcreg/U15
*984 dp/pcreg/U16
*985 dp/pcreg/U17
*986 dp/pcreg/U18
*987 dp/pcreg/U19
*988 dp/pcreg/U20
*989 dp/mdr/q_reg\[7\]
*990 dp/mdr/q_reg\[6\]
*991 dp/mdr/q_reg\[5\]
*992 dp/mdr/q_reg\[4\]
*993 dp/mdr/q_reg\[3\]
*994 dp/mdr/q_reg\[2\]
*995 dp/mdr/q_reg\[1\]
*996 dp/mdr/q_reg\[0\]
*997 dp/areg/q_reg\[7\]
*998 dp/areg/q_reg\[6\]
*999 dp/areg/q_reg\[5\]
*1000 dp/areg/q_reg\[4\]
*1001 dp/areg/q_reg\[3\]
*1002 dp/areg/q_reg\[2\]
*1003 dp/areg/q_reg\[1\]
*1004 dp/areg/q_reg\[0\]
*1005 dp/wrd/q_reg\[7\]
*1006 dp/wrd/q_reg\[6\]
*1007 dp/wrd/q_reg\[5\]
*1008 dp/wrd/q_reg\[4\]
*1009 dp/wrd/q_reg\[3\]
*1010 dp/wrd/q_reg\[2\]
*1011 dp/wrd/q_reg\[1\]
*1012 dp/wrd/q_reg\[0\]
*1013 dp/res/q_reg\[7\]
*1014 dp/res/q_reg\[6\]
*1015 dp/res/q_reg\[5\]
*1016 dp/res/q_reg\[4\]
*1017 dp/res/q_reg\[3\]
*1018 dp/res/q_reg\[2\]
*1019 dp/res/q_reg\[1\]
*1020 dp/res/q_reg\[0\]
*1021 dp/adrmux/U1
*1022 dp/adrmux/U2
*1023 dp/adrmux/U3
*1024 dp/adrmux/U4
*1025 dp/adrmux/U5
*1026 dp/adrmux/U6
*1027 dp/adrmux/U7
*1028 dp/adrmux/U8
*1029 dp/adrmux/U9
*1030 dp/adrmux/U10
*1031 dp/adrmux/U11
*1032 dp/adrmux/U12
*1033 dp/adrmux/U13
*1034 dp/adrmux/U14
*1035 dp/adrmux/U15
*1036 dp/adrmux/U16
*1037 dp/adrmux/U17
*1038 dp/src1mux/FE_OFC24_alusrca
*1039 dp/src1mux/U2
*1040 dp/src1mux/U3
*1041 dp/src1mux/U4
*1042 dp/src1mux/U5
*1043 dp/src1mux/U6
*1044 dp/src1mux/U7
*1045 dp/src1mux/U8
*1046 dp/src1mux/U9
*1047 dp/src1mux/U10
*1048 dp/src1mux/U11
*1049 dp/src1mux/U12
*1050 dp/src1mux/U13
*1051 dp/src1mux/U14
*1052 dp/src1mux/U15
*1053 dp/src1mux/U16
*1054 dp/src1mux/U17
*1055 dp/src2mux/U1
*1056 dp/src2mux/U2
*1057 dp/src2mux/U3
*1058 dp/src2mux/U4
*1059 dp/src2mux/U5
*1060 dp/src2mux/U6
*1061 dp/src2mux/U7
*1062 dp/src2mux/U8
*1063 dp/src2mux/U9
*1064 dp/src2mux/U10
*1065 dp/src2mux/U11
*1066 dp/src2mux/U12
*1067 dp/src2mux/U13
*1068 dp/src2mux/U14
*1069 dp/src2mux/U15
*1070 dp/src2mux/U16
*1071 dp/src2mux/U17
*1072 dp/src2mux/U18
*1073 dp/src2mux/U19
*1074 dp/src2mux/U20
*1075 dp/src2mux/U21
*1076 dp/src2mux/U22
*1077 dp/src2mux/U23
*1078 dp/src2mux/U24
*1079 dp/src2mux/U25
*1080 dp/src2mux/U26
*1081 dp/src2mux/U27
*1082 dp/src2mux/U28
*1083 dp/src2mux/U29
*1084 dp/pcmux/FE_RC_11_0
*1085 dp/pcmux/U1
*1086 dp/pcmux/U2
*1087 dp/pcmux/U3
*1088 dp/pcmux/U4
*1089 dp/pcmux/U5
*1090 dp/pcmux/U6
*1091 dp/pcmux/U10
*1092 dp/pcmux/U11
*1093 dp/pcmux/U12
*1094 dp/pcmux/U13
*1095 dp/pcmux/U14
*1096 dp/pcmux/U15
*1097 dp/pcmux/U16
*1098 dp/pcmux/U17
*1099 dp/pcmux/U18
*1100 dp/pcmux/U19
*1101 dp/pcmux/U20
*1102 dp/pcmux/U21
*1103 dp/pcmux/U22
*1104 dp/pcmux/U23
*1105 dp/pcmux/U24
*1106 dp/pcmux/U25
*1107 dp/pcmux/U26
*1108 dp/pcmux/U27
*1109 dp/pcmux/U28
*1110 dp/pcmux/U29
*1111 dp/wdmux/U1
*1112 dp/wdmux/U3
*1113 dp/wdmux/U5
*1114 dp/wdmux/U7
*1115 dp/wdmux/U9
*1116 dp/wdmux/U11
*1117 dp/wdmux/U13
*1118 dp/wdmux/U15
*1119 dp/wdmux/U17
*1120 dp/rf/CTS_ccl_BUF_clk_G0_L1_2
*1121 dp/rf/FE_OFC19_n142
*1122 dp/rf/FE_OFC18_n133
*1123 dp/rf/FE_OFC17_n124
*1124 dp/rf/FE_OFC16_n115
*1125 dp/rf/FE_OFC15_n106
*1126 dp/rf/FE_OFC14_n97
*1127 dp/rf/FE_OFC13_n79
*1128 dp/rf/FE_OFC12_wd_0
*1129 dp/rf/FE_OFC11_wd_1
*1130 dp/rf/FE_OFC9_wd_3
*1131 dp/rf/FE_OFC8_wd_4
*1132 dp/rf/FE_OFC5_wd_7
*1133 dp/rf/FE_OFC2_SYNOPSYS_UNCONNECTED__4
*1134 dp/rf/FE_OFC1_SYNOPSYS_UNCONNECTED__3
*1135 dp/rf/RAM_reg\[7\]\[7\]
*1136 dp/rf/RAM_reg\[7\]\[6\]
*1137 dp/rf/RAM_reg\[7\]\[5\]
*1138 dp/rf/RAM_reg\[7\]\[4\]
*1139 dp/rf/RAM_reg\[7\]\[3\]
*1140 dp/rf/RAM_reg\[7\]\[2\]
*1141 dp/rf/RAM_reg\[7\]\[1\]
*1142 dp/rf/RAM_reg\[7\]\[0\]
*1143 dp/rf/RAM_reg\[6\]\[7\]
*1144 dp/rf/RAM_reg\[6\]\[6\]
*1145 dp/rf/RAM_reg\[6\]\[5\]
*1146 dp/rf/RAM_reg\[6\]\[4\]
*1147 dp/rf/RAM_reg\[6\]\[3\]
*1148 dp/rf/RAM_reg\[6\]\[2\]
*1149 dp/rf/RAM_reg\[6\]\[1\]
*1150 dp/rf/RAM_reg\[6\]\[0\]
*1151 dp/rf/RAM_reg\[5\]\[7\]
*1152 dp/rf/RAM_reg\[5\]\[6\]
*1153 dp/rf/RAM_reg\[5\]\[5\]
*1154 dp/rf/RAM_reg\[5\]\[4\]
*1155 dp/rf/RAM_reg\[5\]\[3\]
*1156 dp/rf/RAM_reg\[5\]\[2\]
*1157 dp/rf/RAM_reg\[5\]\[1\]
*1158 dp/rf/RAM_reg\[5\]\[0\]
*1159 dp/rf/RAM_reg\[4\]\[7\]
*1160 dp/rf/RAM_reg\[4\]\[6\]
*1161 dp/rf/RAM_reg\[4\]\[5\]
*1162 dp/rf/RAM_reg\[4\]\[4\]
*1163 dp/rf/RAM_reg\[4\]\[3\]
*1164 dp/rf/RAM_reg\[4\]\[2\]
*1165 dp/rf/RAM_reg\[4\]\[1\]
*1166 dp/rf/RAM_reg\[4\]\[0\]
*1167 dp/rf/RAM_reg\[3\]\[7\]
*1168 dp/rf/RAM_reg\[3\]\[6\]
*1169 dp/rf/RAM_reg\[3\]\[5\]
*1170 dp/rf/RAM_reg\[3\]\[4\]
*1171 dp/rf/RAM_reg\[3\]\[3\]
*1172 dp/rf/RAM_reg\[3\]\[2\]
*1173 dp/rf/RAM_reg\[3\]\[1\]
*1174 dp/rf/RAM_reg\[3\]\[0\]
*1175 dp/rf/RAM_reg\[2\]\[7\]
*1176 dp/rf/RAM_reg\[2\]\[6\]
*1177 dp/rf/RAM_reg\[2\]\[5\]
*1178 dp/rf/RAM_reg\[2\]\[4\]
*1179 dp/rf/RAM_reg\[2\]\[3\]
*1180 dp/rf/RAM_reg\[2\]\[2\]
*1181 dp/rf/RAM_reg\[2\]\[1\]
*1182 dp/rf/RAM_reg\[2\]\[0\]
*1183 dp/rf/RAM_reg\[1\]\[7\]
*1184 dp/rf/RAM_reg\[1\]\[6\]
*1185 dp/rf/RAM_reg\[1\]\[5\]
*1186 dp/rf/RAM_reg\[1\]\[4\]
*1187 dp/rf/RAM_reg\[1\]\[3\]
*1188 dp/rf/RAM_reg\[1\]\[2\]
*1189 dp/rf/RAM_reg\[1\]\[1\]
*1190 dp/rf/RAM_reg\[1\]\[0\]
*1191 dp/rf/RAM_reg\[0\]\[7\]
*1192 dp/rf/RAM_reg\[0\]\[6\]
*1193 dp/rf/RAM_reg\[0\]\[5\]
*1194 dp/rf/RAM_reg\[0\]\[4\]
*1195 dp/rf/RAM_reg\[0\]\[3\]
*1196 dp/rf/RAM_reg\[0\]\[2\]
*1197 dp/rf/RAM_reg\[0\]\[1\]
*1198 dp/rf/RAM_reg\[0\]\[0\]
*1199 dp/rf/U2
*1200 dp/rf/U3
*1201 dp/rf/U4
*1202 dp/rf/U5
*1203 dp/rf/U6
*1204 dp/rf/U7
*1205 dp/rf/U8
*1206 dp/rf/U9
*1207 dp/rf/U10
*1208 dp/rf/U11
*1209 dp/rf/U12
*1210 dp/rf/U21
*1211 dp/rf/U22
*1212 dp/rf/U23
*1213 dp/rf/U24
*1214 dp/rf/U25
*1215 dp/rf/U26
*1216 dp/rf/U27
*1217 dp/rf/U28
*1218 dp/rf/U29
*1219 dp/rf/U30
*1220 dp/rf/U31
*1221 dp/rf/U32
*1222 dp/rf/U33
*1223 dp/rf/U34
*1224 dp/rf/U35
*1225 dp/rf/U36
*1226 dp/rf/U37
*1227 dp/rf/U38
*1228 dp/rf/U39
*1229 dp/rf/U40
*1230 dp/rf/U41
*1231 dp/rf/U42
*1232 dp/rf/U43
*1233 dp/rf/U44
*1234 dp/rf/U45
*1235 dp/rf/U46
*1236 dp/rf/U47
*1237 dp/rf/U48
*1238 dp/rf/U49
*1239 dp/rf/U50
*1240 dp/rf/U51
*1241 dp/rf/U52
*1242 dp/rf/U53
*1243 dp/rf/U54
*1244 dp/rf/U55
*1245 dp/rf/U56
*1246 dp/rf/U57
*1247 dp/rf/U58
*1248 dp/rf/U59
*1249 dp/rf/U60
*1250 dp/rf/U61
*1251 dp/rf/U62
*1252 dp/rf/U63
*1253 dp/rf/U64
*1254 dp/rf/U65
*1255 dp/rf/U66
*1256 dp/rf/U67
*1257 dp/rf/U68
*1258 dp/rf/U69
*1259 dp/rf/U70
*1260 dp/rf/U71
*1261 dp/rf/U72
*1262 dp/rf/U73
*1263 dp/rf/U74
*1264 dp/rf/U75
*1265 dp/rf/U76
*1266 dp/rf/U77
*1267 dp/rf/U78
*1268 dp/rf/U79
*1269 dp/rf/U80
*1270 dp/rf/U81
*1271 dp/rf/U82
*1272 dp/rf/U83
*1273 dp/rf/U84
*1274 dp/rf/U85
*1275 dp/rf/U86
*1276 dp/rf/U87
*1277 dp/rf/U88
*1278 dp/rf/U89
*1279 dp/rf/U90
*1280 dp/rf/U91
*1281 dp/rf/U92
*1282 dp/rf/U93
*1283 dp/rf/U94
*1284 dp/rf/U95
*1285 dp/rf/U96
*1286 dp/rf/U97
*1287 dp/rf/U98
*1288 dp/rf/U99
*1289 dp/rf/U100
*1290 dp/rf/U101
*1291 dp/rf/U102
*1292 dp/rf/U103
*1293 dp/rf/U104
*1294 dp/rf/U105
*1295 dp/rf/U106
*1296 dp/rf/U107
*1297 dp/rf/U108
*1298 dp/rf/U109
*1299 dp/rf/U110
*1300 dp/rf/U111
*1301 dp/rf/U112
*1302 dp/rf/U113
*1303 dp/rf/U114
*1304 dp/rf/U115
*1305 dp/rf/U116
*1306 dp/rf/U117
*1307 dp/rf/U118
*1308 dp/rf/U119
*1309 dp/rf/U120
*1310 dp/rf/U121
*1311 dp/rf/U122
*1312 dp/rf/U123
*1313 dp/rf/U124
*1314 dp/rf/U125
*1315 dp/rf/U126
*1316 dp/rf/U127
*1317 dp/rf/U128
*1318 dp/rf/U129
*1319 dp/rf/U130
*1320 dp/rf/U131
*1321 dp/rf/U132
*1322 dp/rf/U137
*1323 dp/rf/U138
*1324 dp/rf/U139
*1325 dp/rf/U140
*1326 dp/rf/U141
*1327 dp/rf/U142
*1328 dp/rf/U143
*1329 dp/rf/U144
*1330 dp/rf/U145
*1331 dp/rf/U146
*1332 dp/rf/U147
*1333 dp/rf/U148
*1334 dp/rf/U149
*1335 dp/rf/U150
*1336 dp/rf/U151
*1337 dp/rf/U152
*1338 dp/rf/U155
*1339 dp/rf/U156
*1340 dp/rf/U157
*1341 dp/rf/U158
*1342 dp/rf/U159
*1343 dp/rf/U160
*1344 dp/rf/U161
*1345 dp/rf/U162
*1346 dp/rf/U163
*1347 dp/rf/U164
*1348 dp/rf/U165
*1349 dp/rf/U166
*1350 dp/rf/U167
*1351 dp/rf/U168
*1352 dp/rf/U169
*1353 dp/rf/U170
*1354 dp/rf/U171
*1355 dp/rf/U172
*1356 dp/rf/U173
*1357 dp/rf/U174
*1358 dp/rf/U175
*1359 dp/rf/U176
*1360 dp/rf/U177
*1361 dp/rf/U178
*1362 dp/rf/U179
*1363 dp/rf/U180
*1364 dp/rf/U181
*1365 dp/rf/U182
*1366 dp/rf/U183
*1367 dp/rf/U184
*1368 dp/rf/U185
*1369 dp/rf/U186
*1370 dp/rf/U187
*1371 dp/rf/U188
*1372 dp/rf/U189
*1373 dp/rf/U190
*1374 dp/rf/U191
*1375 dp/rf/U192
*1376 dp/rf/U193
*1377 dp/rf/U194
*1378 dp/rf/U195
*1379 dp/rf/U196
*1380 dp/rf/U197
*1381 dp/rf/U198
*1382 dp/rf/U199
*1383 dp/rf/U200
*1384 dp/rf/U201
*1385 dp/rf/U202
*1386 dp/rf/U203
*1387 dp/rf/U204
*1388 dp/rf/U205
*1389 dp/rf/U206
*1390 dp/rf/U207
*1391 dp/rf/U208
*1392 dp/rf/U209
*1393 dp/rf/U210
*1394 dp/rf/U211
*1395 dp/rf/U212
*1396 dp/rf/U213
*1397 dp/rf/U214
*1398 dp/rf/U215
*1399 dp/rf/U216
*1400 dp/rf/U217
*1401 dp/rf/U218
*1402 dp/rf/U219
*1403 dp/rf/U220
*1404 dp/rf/U221
*1405 dp/rf/U222
*1406 dp/rf/U223
*1407 dp/rf/U224
*1408 dp/rf/U225
*1409 dp/rf/U226
*1410 dp/rf/U227
*1411 dp/rf/U228
*1412 dp/rf/U229
*1413 dp/rf/U230
*1414 dp/rf/U231
*1415 dp/rf/U232
*1416 dp/rf/U233
*1417 dp/rf/U234
*1418 dp/rf/U235
*1419 dp/rf/U236
*1420 dp/rf/U237
*1421 dp/rf/U238
*1422 dp/rf/U239
*1423 dp/rf/U240
*1424 dp/rf/U241
*1425 dp/rf/U242
*1426 dp/rf/U243
*1427 dp/rf/U244
*1428 dp/rf/U245
*1429 dp/rf/U246
*1430 dp/rf/U247
*1431 dp/rf/U248
*1432 dp/rf/U249
*1433 dp/rf/U250
*1434 dp/rf/U251
*1435 dp/rf/U252
*1436 dp/rf/U253
*1437 dp/rf/U254
*1438 dp/rf/U255
*1439 dp/rf/U256
*1440 dp/rf/U257
*1441 dp/rf/U258
*1442 dp/rf/U259
*1443 dp/rf/U260
*1444 dp/rf/U261
*1445 dp/rf/U262
*1446 dp/rf/U263
*1447 dp/rf/U264
*1448 dp/rf/U265
*1449 dp/rf/U266
*1450 dp/rf/U267
*1451 dp/rf/U268
*1452 dp/rf/U269
*1453 dp/rf/U270
*1454 dp/rf/U271
*1455 dp/rf/U272
*1456 dp/rf/U273
*1457 dp/rf/U274
*1458 dp/rf/U275
*1459 dp/rf/U276
*1460 dp/rf/U277
*1461 dp/rf/U278
*1462 dp/rf/U279
*1463 dp/rf/U280
*1464 dp/rf/U281
*1465 dp/rf/U282
*1466 dp/rf/U283
*1467 dp/rf/U284
*1468 dp/alunit/FE_RC_1_0
*1469 dp/alunit/FE_RC_0_0
*1470 dp/alunit/U40
*1471 dp/alunit/U41
*1472 dp/alunit/U42
*1473 dp/alunit/U43
*1474 dp/alunit/U44
*1475 dp/alunit/U45
*1476 dp/alunit/U46
*1477 dp/alunit/U47
*1478 dp/alunit/U48
*1479 dp/alunit/add_1_root_add_263_2/FE_RC_9_0
*1480 dp/alunit/add_1_root_add_263_2/FE_RC_8_0
*1481 dp/alunit/add_1_root_add_263_2/FE_RC_7_0
*1482 dp/alunit/add_1_root_add_263_2/FE_RC_6_0
*1483 dp/alunit/add_1_root_add_263_2/U1_6
*1484 dp/alunit/add_1_root_add_263_2/U1_5
*1485 dp/alunit/add_1_root_add_263_2/U1_4
*1486 dp/alunit/add_1_root_add_263_2/U1_3
*1487 dp/alunit/add_1_root_add_263_2/U1_2
*1488 dp/alunit/add_1_root_add_263_2/U1_1
*1489 dp/alunit/add_1_root_add_263_2/U1_0
*1490 dp/alunit/U2
*1491 dp/alunit/U3
*1492 dp/alunit/U5
*1493 dp/alunit/U6
*1494 dp/alunit/U7
*1495 dp/alunit/U8
*1496 dp/alunit/U9
*1497 dp/alunit/U10
*1498 dp/alunit/U11
*1499 dp/alunit/U12
*1500 dp/alunit/U13
*1501 dp/alunit/U14
*1502 dp/alunit/U15
*1503 dp/alunit/U16
*1504 dp/alunit/U17
*1505 dp/alunit/U18
*1506 dp/alunit/U19
*1507 dp/alunit/U20
*1508 dp/alunit/U21
*1509 dp/alunit/U22
*1510 dp/alunit/U23
*1511 dp/alunit/U24
*1512 dp/alunit/U25
*1513 dp/alunit/U26
*1514 dp/alunit/U27
*1515 dp/alunit/U28
*1516 dp/alunit/U29
*1517 dp/alunit/U30
*1518 dp/alunit/U31
*1519 dp/alunit/U32
*1520 dp/alunit/U33
*1521 dp/alunit/U34
*1522 dp/alunit/U35
*1523 dp/alunit/U36
*1524 dp/alunit/U37
*1525 dp/alunit/U38
*1526 dp/alunit/U39
*1527 dp/zd/FE_RC_4_0
*1528 dp/zd/FE_RC_3_0
*1529 dp/zd/U1
*1530 dp/zd/U2


*PORTS

*70 I *C 74.765 149.94
*71 I *C 0 0
*46 I *C 0 0
*47 I *C 0 0
*48 I *C 0 0
*49 I *C 0 0
*50 I *C 0 0
*51 I *C 0 0
*52 I *C 0 0
*53 I *C 0 0
*72 O *C 0 0
*73 O *C 0 0
*54 O *C 0 0
*55 O *C 0 0
*56 O *C 0 0
*57 O *C 0 0
*58 O *C 0 0
*59 O *C 0 0
*60 O *C 0 0
*61 O *C 0 0
*62 O *C 0 0
*63 O *C 0 0
*64 O *C 0 0
*65 O *C 0 0
*66 O *C 0 0
*67 O *C 0 0
*68 O *C 0 0
*69 O *C 0 0


*D_NET *73 0.0214747

*CONN
*P *73 O *C 0 0 *L 0
*I *825:ZN O *C 99.6 75.03 *L 0 *D INV_X1

*CAP
1 *73 0.0107374
2 *825:ZN 0.0107374

*RES
1 *73 *825:ZN 947.991
*END

*D_NET *72 0.0208937

*CONN
*P *72 O *C 0 0 *L 0
*I *824:ZN O *C 94.37 75.535 *L 0 *D NAND2_X1

*CAP
1 *72 0.0104468
2 *824:ZN 0.0104468

*RES
1 *72 *824:ZN 922.341
*END

*D_NET *61 0.0235616

*CONN
*P *61 O *C 0 0 *L 0
*I *1024:ZN O *C 96.67 94.93 *L 0 *D INV_X1

*CAP
1 *61 0.0117808
2 *1024:ZN 0.0117808

*RES
1 *61 *1024:ZN 1040.11
*END

*D_NET *60 0.0242613

*CONN
*P *60 O *C 0 0 *L 0
*I *1026:ZN O *C 91.16 106.13 *L 0 *D INV_X1

*CAP
1 *60 0.0121306
2 *1026:ZN 0.0121306

*RES