*SPEF "IEEE 1481-1998"
*DESIGN "mips"
*DATE "Fri Jun 22 12:43:22 2018"
*VENDOR "Cadence Design Systems, Inc."
*PROGRAM "Innovus"
*VERSION "16.21-s078_1"
*DESIGN_FLOW "COUPLING C" "PIN_CAP NONE" "NAME_SCOPE LOCAL"
*DIVIDER /
*DELIMITER :
*BUS_DELIMITER []
*T_UNIT 1 NS
*C_UNIT 1 PF
*R_UNIT 1 OHM
*L_UNIT 1 HENRY

// MMMC spef file for corner 'default_rc_corner'

*NAME_MAP

*1 cont/FE_PHN23_reset
*2 cont/FE_PHN22_reset
*3 dp/CTS_20
*4 dp/CTS_19
*5 dp/CTS_18
*6 dp/CTS_17
*7 dp/CTS_16
*8 CTS_4
*9 cont/FE_OFN25_irwrite_0
*10 dp/rf/FE_OFN24_n135
*11 dp/rf/FE_OFN23_n126
*12 dp/rf/FE_OFN22_n117
*13 dp/rf/FE_OFN21_n108
*14 dp/rf/FE_OFN20_n99
*15 dp/rf/FE_OFN19_n90
*16 dp/rf/FE_OFN18_n81
*17 dp/rf/FE_OFN17_n79
*18 dp/rf/FE_OFN16_wd_0
*19 dp/rf/FE_OFN15_wd_1
*20 dp/rf/FE_OFN14_wd_2
*21 dp/rf/FE_OFN13_wd_3
*22 dp/rf/FE_OFN12_wd_4
*23 dp/rf/FE_OFN11_wd_5
*24 dp/rf/FE_OFN10_wd_6
*25 dp/rf/FE_OFN9_wd_7
*26 dp/FE_RN_4
*27 dp/FE_OFN7_SYNOPSYS_UNCONNECTED__9
*28 dp/FE_RN_3
*29 dp/FE_OFN5_SYNOPSYS_UNCONNECTED__8
*30 dp/FE_RN_2
*31 dp/rf/FE_OFN3_SYNOPSYS_UNCONNECTED__4
*32 dp/FE_RN_1
*33 dp/rf/FE_OFN1_SYNOPSYS_UNCONNECTED__3
*34 memdata[7]
*35 memdata[6]
*36 memdata[5]
*37 memdata[4]
*38 memdata[3]
*39 memdata[2]
*40 memdata[1]
*41 memdata[0]
*42 adr[7]
*43 adr[6]
*44 adr[5]
*45 adr[4]
*46 adr[3]
*47 adr[2]
*48 adr[1]
*49 adr[0]
*50 writedata[7]
*51 writedata[6]
*52 writedata[5]
*53 writedata[4]
*54 writedata[3]
*55 writedata[2]
*56 writedata[1]
*57 writedata[0]
*58 clk
*59 reset
*60 memread
*61 memwrite
*62 zero
*63 alusrca
*64 memtoreg
*65 iord
*66 pcen
*67 regwrite
*68 regdst
*69 instr[31]
*70 instr[30]
*71 instr[29]
*72 instr[28]
*73 instr[27]
*74 instr[26]
*75 instr[5]
*76 instr[4]
*77 instr[3]
*78 instr[2]
*79 instr[1]
*80 instr[0]
*81 pcsource[1]
*82 alusrcb[1]
*83 alusrcb[0]
*84 aluop[1]
*85 aluop[0]
*86 irwrite[3]
*87 irwrite[2]
*88 irwrite[1]
*89 irwrite[0]
*90 alucont[2]
*91 alucont[1]
*92 alucont[0]
*93 SYNOPSYS_UNCONNECTED__2
*94 SYNOPSYS_UNCONNECTED__7
*95 SYNOPSYS_UNCONNECTED__12
*96 SYNOPSYS_UNCONNECTED__13
*97 SYNOPSYS_UNCONNECTED__14
*98 SYNOPSYS_UNCONNECTED__18
*99 SYNOPSYS_UNCONNECTED__19
*100 cont/N15
*101 cont/N16
*102 cont/N17
*103 cont/N18
*104 cont/n8
*105 cont/n9
*106 cont/n11
*107 cont/n12
*108 cont/n20
*109 cont/n21
*110 cont/n22
*111 cont/n23
*112 cont/n24
*113 cont/n25
*114 cont/n26
*115 cont/n27
*116 cont/n28
*117 cont/n29
*118 cont/n30
*119 cont/n31
*120 cont/n32
*121 cont/n33
*122 cont/n34
*123 cont/n35
*124 cont/n36
*125 cont/n37
*126 cont/n38
*127 cont/n39
*128 cont/n40
*129 cont/n41
*130 cont/n42
*131 cont/n43
*132 cont/n44
*133 cont/n45
*134 cont/n46
*135 cont/n47
*136 cont/n48
*137 cont/n49
*138 cont/n50
*139 cont/n51
*140 cont/n1
*141 cont/n2
*142 cont/n3
*143 cont/n4
*144 cont/n5
*145 cont/n6
*146 cont/n7
*147 cont/n10
*148 cont/n13
*149 cont/n14
*150 cont/n15
*151 cont/n17
*152 cont/n18
*153 cont/state[3]
*154 cont/state[2]
*155 cont/state[1]
*156 cont/state[0]
*157 ac/n6
*158 ac/n7
*159 ac/n8
*160 ac/n9
*161 ac/n10
*162 ac/n11
*163 ac/n12
*164 ac/n13
*165 ac/n1
*166 ac/n2
*167 ac/n3
*168 ac/n4
*169 dp/wa[2]
*170 dp/wa[1]
*171 dp/wa[0]
*172 dp/nextpc[7]
*173 dp/nextpc[6]
*174 dp/nextpc[5]
*175 dp/nextpc[4]
*176 dp/nextpc[3]
*177 dp/nextpc[2]
*178 dp/nextpc[1]
*179 dp/nextpc[0]
*180 dp/pc[7]
*181 dp/pc[6]
*182 dp/pc[5]
*183 dp/pc[4]
*184 dp/pc[3]
*185 dp/pc[2]
*186 dp/pc[1]
*187 dp/pc[0]
*188 dp/md[7]
*189 dp/md[6]
*190 dp/md[5]
*191 dp/md[4]
*192 dp/md[3]
*193 dp/md[2]
*194 dp/md[1]
*195 dp/md[0]
*196 dp/rd1[7]
*197 dp/rd1[6]
*198 dp/rd1[5]
*199 dp/rd1[4]
*200 dp/rd1[3]
*201 dp/rd1[2]
*202 dp/rd1[1]
*203 dp/rd1[0]
*204 dp/a[7]
*205 dp/a[6]
*206 dp/a[5]
*207 dp/a[4]
*208 dp/a[3]
*209 dp/a[2]
*210 dp/a[1]
*211 dp/a[0]
*212 dp/rd2[7]
*213 dp/rd2[6]
*214 dp/rd2[5]
*215 dp/rd2[4]
*216 dp/rd2[3]
*217 dp/rd2[2]
*218 dp/rd2[1]
*219 dp/rd2[0]
*220 dp/aluresult[7]
*221 dp/aluresult[6]
*222 dp/aluresult[5]
*223 dp/aluresult[4]
*224 dp/aluresult[3]
*225 dp/aluresult[2]
*226 dp/aluresult[1]
*227 dp/aluresult[0]
*228 dp/aluout[7]
*229 dp/aluout[6]
*230 dp/aluout[5]
*231 dp/aluout[4]
*232 dp/aluout[3]
*233 dp/aluout[2]
*234 dp/aluout[1]
*235 dp/aluout[0]
*236 dp/src1[7]
*237 dp/src1[6]
*238 dp/src1[5]
*239 dp/src1[4]
*240 dp/src1[3]
*241 dp/src1[2]
*242 dp/src1[1]
*243 dp/src1[0]
*244 dp/src2[7]
*245 dp/src2[6]
*246 dp/src2[5]
*247 dp/src2[4]
*248 dp/src2[3]
*249 dp/src2[2]
*250 dp/src2[1]
*251 dp/src2[0]
*252 dp/wd[7]
*253 dp/wd[6]
*254 dp/wd[5]
*255 dp/wd[4]
*256 dp/wd[3]
*257 dp/wd[2]
*258 dp/wd[1]
*259 dp/wd[0]
*260 dp/regmux/n6
*261 dp/regmux/n7
*262 dp/regmux/n8
*263 dp/regmux/n4
*264 dp/ir0/n1
*265 dp/ir0/n2
*266 dp/ir0/n3
*267 dp/ir0/n4
*268 dp/ir0/n5
*269 dp/ir0/n6
*270 dp/ir0/n7
*271 dp/ir0/n8
*272 dp/ir0/n9
*273 dp/ir0/n10
*274 dp/ir0/n11
*275 dp/ir0/n12
*276 dp/ir0/n13
*277 dp/ir0/n14
*278 dp/ir0/n15
*279 dp/ir0/n16
*280 dp/ir0/n17
*281 dp/ir0/n18
*282 dp/ir0/n19
*283 dp/ir0/n20
*284 dp/ir0/n21
*285 dp/ir0/n22
*286 dp/ir0/n23
*287 dp/ir0/n24
*288 dp/ir1/n27
*289 dp/ir1/n28
*290 dp/ir1/n29
*291 dp/ir1/n36
*292 dp/ir1/n37
*293 dp/ir1/n38
*294 dp/ir1/n43
*295 dp/ir1/n44
*296 dp/ir1/n45
*297 dp/ir2/n25
*298 dp/ir2/n26
*299 dp/ir2/n27
*300 dp/ir2/n30
*301 dp/ir2/n31
*302 dp/ir2/n32
*303 dp/ir2/n33
*304 dp/ir2/n34
*305 dp/ir2/n35
*306 dp/ir2/n38
*307 dp/ir2/n39
*308 dp/ir2/n40
*309 dp/ir2/n41
*310 dp/ir2/n42
*311 dp/ir2/n43
*312 dp/ir2/n46
*313 dp/ir2/n47
*314 dp/ir2/n48
*315 dp/ir3/n25
*316 dp/ir3/n26
*317 dp/ir3/n27
*318 dp/ir3/n28
*319 dp/ir3/n29
*320 dp/ir3/n30
*321 dp/ir3/n35
*322 dp/ir3/n36
*323 dp/ir3/n37
*324 dp/ir3/n38
*325 dp/ir3/n39
*326 dp/ir3/n40
*327 dp/ir3/n41
*328 dp/ir3/n42
*329 dp/ir3/n43
*330 dp/ir3/n44
*331 dp/ir3/n45
*332 dp/ir3/n46
*333 dp/pcreg/n19
*334 dp/pcreg/n20
*335 dp/pcreg/n21
*336 dp/pcreg/n22
*337 dp/pcreg/n23
*338 dp/pcreg/n24
*339 dp/pcreg/n25
*340 dp/pcreg/n26
*341 dp/pcreg/n27
*342 dp/pcreg/n28
*343 dp/pcreg/n1
*344 dp/pcreg/n10
*345 dp/pcreg/n11
*346 dp/pcreg/n12
*347 dp/pcreg/n13
*348 dp/pcreg/n14
*349 dp/pcreg/n15
*350 dp/pcreg/n16
*351 dp/pcreg/n17
*352 dp/adrmux/n11
*353 dp/adrmux/n12
*354 dp/adrmux/n13
*355 dp/adrmux/n14
*356 dp/adrmux/n15
*357 dp/adrmux/n16
*358 dp/adrmux/n17
*359 dp/adrmux/n18
*360 dp/adrmux/n9
*361 dp/src1mux/n9
*362 dp/src1mux/n10
*363 dp/src1mux/n18
*364 dp/src1mux/n19
*365 dp/src1mux/n20
*366 dp/src1mux/n21
*367 dp/src1mux/n22
*368 dp/src1mux/n23
*369 dp/src1mux/n24
*370 dp/src2mux/n3
*371 dp/src2mux/n4
*372 dp/src2mux/n5
*373 dp/src2mux/n6
*374 dp/src2mux/n7
*375 dp/src2mux/n8
*376 dp/src2mux/n9
*377 dp/src2mux/n10
*378 dp/src2mux/n11
*379 dp/src2mux/n12
*380 dp/src2mux/n13
*381 dp/src2mux/n14
*382 dp/src2mux/n15
*383 dp/src2mux/n16
*384 dp/src2mux/n17
*385 dp/src2mux/n18
*386 dp/src2mux/n19
*387 dp/src2mux/n20
*388 dp/src2mux/n21
*389 dp/src2mux/n22
*390 dp/src2mux/n1
*391 dp/pcmux/n1
*392 dp/pcmux/n22
*393 dp/pcmux/n24
*394 dp/pcmux/n25
*395 dp/pcmux/n26
*396 dp/pcmux/n27
*397 dp/pcmux/n28
*398 dp/pcmux/n29
*399 dp/pcmux/n30
*400 dp/pcmux/n31
*401 dp/pcmux/n32
*402 dp/pcmux/n33
*403 dp/pcmux/n34
*404 dp/pcmux/n35
*405 dp/pcmux/n36
*406 dp/pcmux/n37
*407 dp/pcmux/n38
*408 dp/pcmux/n39
*409 dp/pcmux/n40
*410 dp/wdmux/n9
*411 dp/rf/RAM\[7\]\[7\]
*412 dp/rf/RAM\[7\]\[6\]
*413 dp/rf/RAM\[7\]\[5\]
*414 dp/rf/RAM\[7\]\[4\]
*415 dp/rf/RAM\[7\]\[3\]
*416 dp/rf/RAM\[7\]\[2\]
*417 dp/rf/RAM\[7\]\[1\]
*418 dp/rf/RAM\[7\]\[0\]
*419 dp/rf/RAM\[6\]\[7\]
*420 dp/rf/RAM\[6\]\[6\]
*421 dp/rf/RAM\[6\]\[5\]
*422 dp/rf/RAM\[6\]\[4\]
*423 dp/rf/RAM\[6\]\[3\]
*424 dp/rf/RAM\[6\]\[2\]
*425 dp/rf/RAM\[6\]\[1\]
*426 dp/rf/RAM\[6\]\[0\]
*427 dp/rf/RAM\[5\]\[7\]
*428 dp/rf/RAM\[5\]\[6\]
*429 dp/rf/RAM\[5\]\[5\]
*430 dp/rf/RAM\[5\]\[4\]
*431 dp/rf/RAM\[5\]\[3\]
*432 dp/rf/RAM\[5\]\[2\]
*433 dp/rf/RAM\[5\]\[1\]
*434 dp/rf/RAM\[5\]\[0\]
*435 dp/rf/RAM\[4\]\[7\]
*436 dp/rf/RAM\[4\]\[6\]
*437 dp/rf/RAM\[4\]\[5\]
*438 dp/rf/RAM\[4\]\[4\]
*439 dp/rf/RAM\[4\]\[3\]
*440 dp/rf/RAM\[4\]\[2\]
*441 dp/rf/RAM\[4\]\[1\]
*442 dp/rf/RAM\[4\]\[0\]
*443 dp/rf/RAM\[3\]\[7\]
*444 dp/rf/RAM\[3\]\[6\]
*445 dp/rf/RAM\[3\]\[5\]
*446 dp/rf/RAM\[3\]\[4\]
*447 dp/rf/RAM\[3\]\[3\]
*448 dp/rf/RAM\[3\]\[2\]
*449 dp/rf/RAM\[3\]\[1\]
*450 dp/rf/RAM\[3\]\[0\]
*451 dp/rf/RAM\[2\]\[7\]
*452 dp/rf/RAM\[2\]\[6\]
*453 dp/rf/RAM\[2\]\[5\]
*454 dp/rf/RAM\[2\]\[4\]
*455 dp/rf/RAM\[2\]\[3\]
*456 dp/rf/RAM\[2\]\[2\]
*457 dp/rf/RAM\[2\]\[1\]
*458 dp/rf/RAM\[2\]\[0\]
*459 dp/rf/RAM\[1\]\[7\]
*460 dp/rf/RAM\[1\]\[6\]
*461 dp/rf/RAM\[1\]\[5\]
*462 dp/rf/RAM\[1\]\[4\]
*463 dp/rf/RAM\[1\]\[3\]
*464 dp/rf/RAM\[1\]\[2\]
*465 dp/rf/RAM\[1\]\[1\]
*466 dp/rf/RAM\[1\]\[0\]
*467 dp/rf/RAM\[0\]\[7\]
*468 dp/rf/RAM\[0\]\[6\]
*469 dp/rf/RAM\[0\]\[5\]
*470 dp/rf/RAM\[0\]\[4\]
*471 dp/rf/RAM\[0\]\[3\]
*472 dp/rf/RAM\[0\]\[2\]
*473 dp/rf/RAM\[0\]\[1\]
*474 dp/rf/RAM\[0\]\[0\]
*475 dp/rf/N89
*476 dp/rf/N90
*477 dp/rf/N91
*478 dp/rf/N92
*479 dp/rf/N93
*480 dp/rf/N94
*481 dp/rf/N95
*482 dp/rf/N96
*483 dp/rf/N99
*484 dp/rf/N100
*485 dp/rf/N101
*486 dp/rf/N102
*487 dp/rf/N103
*488 dp/rf/N104
*489 dp/rf/N105
*490 dp/rf/N106
*491 dp/rf/n77
*492 dp/rf/n78
*493 dp/rf/n79
*494 dp/rf/n80
*495 dp/rf/n81
*496 dp/rf/n82
*497 dp/rf/n83
*498 dp/rf/n84
*499 dp/rf/n85
*500 dp/rf/n86
*501 dp/rf/n87
*502 dp/rf/n88
*503 dp/rf/n89
*504 dp/rf/n90
*505 dp/rf/n91
*506 dp/rf/n92
*507 dp/rf/n93
*508 dp/rf/n94
*509 dp/rf/n95
*510 dp/rf/n96
*511 dp/rf/n97
*512 dp/rf/n98
*513 dp/rf/n99
*514 dp/rf/n100
*515 dp/rf/n101
*516 dp/rf/n102
*517 dp/rf/n103
*518 dp/rf/n104
*519 dp/rf/n105
*520 dp/rf/n106
*521 dp/rf/n107
*522 dp/rf/n108
*523 dp/rf/n109
*524 dp/rf/n110
*525 dp/rf/n111
*526 dp/rf/n112
*527 dp/rf/n113
*528 dp/rf/n114
*529 dp/rf/n115
*530 dp/rf/n116
*531 dp/rf/n117
*532 dp/rf/n118
*533 dp/rf/n119
*534 dp/rf/n120
*535 dp/rf/n121
*536 dp/rf/n122
*537 dp/rf/n123
*538 dp/rf/n124
*539 dp/rf/n125
*540 dp/rf/n126
*541 dp/rf/n127
*542 dp/rf/n128
*543 dp/rf/n129
*544 dp/rf/n130
*545 dp/rf/n131
*546 dp/rf/n132
*547 dp/rf/n133
*548 dp/rf/n134
*549 dp/rf/n135
*550 dp/rf/n136
*551 dp/rf/n137
*552 dp/rf/n138
*553 dp/rf/n139
*554 dp/rf/n140
*555 dp/rf/n141
*556 dp/rf/n142
*557 dp/rf/n143
*558 dp/rf/n144
*559 dp/rf/n145
*560 dp/rf/n146
*561 dp/rf/n147
*562 dp/rf/n148
*563 dp/rf/n149
*564 dp/rf/n150
*565 dp/rf/n151
*566 dp/rf/n152
*567 dp/rf/n153
*568 dp/rf/n154
*569 dp/rf/n155
*570 dp/rf/n156
*571 dp/rf/n157
*572 dp/rf/n158
*573 dp/rf/n159
*574 dp/rf/n160
*575 dp/rf/n161
*576 dp/rf/n162
*577 dp/rf/n163
*578 dp/rf/n164
*579 dp/rf/n165
*580 dp/rf/n166
*581 dp/rf/n167
*582 dp/rf/n168
*583 dp/rf/n169
*584 dp/rf/n170
*585 dp/rf/n171
*586 dp/rf/n172
*587 dp/rf/n173
*588 dp/rf/n174
*589 dp/rf/n175
*590 dp/rf/n176
*591 dp/rf/n177
*592 dp/rf/n178
*593 dp/rf/n179
*594 dp/rf/n180
*595 dp/rf/n181
*596 dp/rf/n182
*597 dp/rf/n183
*598 dp/rf/n184
*599 dp/rf/n185
*600 dp/rf/n186
*601 dp/rf/n187
*602 dp/rf/n188
*603 dp/rf/n189
*604 dp/rf/n190
*605 dp/rf/n191
*606 dp/rf/n192
*607 dp/rf/n193
*608 dp/rf/n194
*609 dp/rf/n195
*610 dp/rf/n196
*611 dp/rf/n197
*612 dp/rf/n198
*613 dp/rf/n199
*614 dp/rf/n200
*615 dp/rf/n201
*616 dp/rf/n202
*617 dp/rf/n203
*618 dp/rf/n204
*619 dp/rf/n205
*620 dp/rf/n206
*621 dp/rf/n207
*622 dp/rf/n208
*623 dp/rf/n209
*624 dp/rf/n210
*625 dp/rf/n211
*626 dp/rf/n212
*627 dp/rf/n213
*628 dp/rf/n214
*629 dp/rf/n1
*630 dp/rf/n66
*631 dp/rf/n67
*632 dp/rf/n68
*633 dp/rf/n69
*634 dp/rf/n70
*635 dp/rf/n71
*636 dp/rf/n72
*637 dp/rf/n73
*638 dp/rf/n74
*639 dp/rf/n75
*640 dp/rf/n76
*641 dp/rf/n215
*642 dp/rf/n216
*643 dp/rf/n217
*644 dp/rf/n218
*645 dp/rf/n219
*646 dp/rf/n220
*647 dp/rf/n221
*648 dp/rf/n222
*649 dp/rf/n223
*650 dp/rf/n224
*651 dp/rf/n225
*652 dp/rf/n226
*653 dp/rf/n227
*654 dp/rf/n228
*655 dp/rf/n229
*656 dp/rf/n230
*657 dp/rf/n231
*658 dp/rf/n232
*659 dp/rf/n233
*660 dp/rf/n234
*661 dp/rf/n235
*662 dp/rf/n236
*663 dp/rf/n237
*664 dp/rf/n238
*665 dp/rf/n239
*666 dp/rf/n240
*667 dp/rf/n241
*668 dp/rf/n242
*669 dp/rf/n243
*670 dp/rf/n244
*671 dp/rf/n245
*672 dp/rf/n246
*673 dp/rf/n247
*674 dp/rf/n248
*675 dp/rf/n249
*676 dp/rf/n250
*677 dp/rf/n254
*678 dp/rf/n255
*679 dp/rf/n256
*680 dp/rf/n257
*681 dp/rf/n258
*682 dp/rf/n259
*683 dp/rf/n260
*684 dp/rf/n261
*685 dp/rf/n262
*686 dp/rf/n263
*687 dp/rf/n264
*688 dp/rf/n265
*689 dp/rf/n266
*690 dp/rf/n267
*691 dp/rf/n268
*692 dp/rf/n269
*693 dp/rf/n270
*694 dp/rf/n271
*695 dp/rf/n272
*696 dp/rf/n273
*697 dp/rf/n274
*698 dp/rf/n275
*699 dp/rf/n276
*700 dp/rf/n277
*701 dp/rf/n278
*702 dp/rf/n279
*703 dp/rf/n280
*704 dp/rf/n281
*705 dp/rf/n282
*706 dp/rf/n283
*707 dp/rf/n284
*708 dp/rf/n285
*709 dp/rf/n286
*710 dp/rf/n287
*711 dp/rf/n288
*712 dp/rf/n289
*713 dp/rf/n290
*714 dp/rf/n291
*715 dp/rf/n292
*716 dp/rf/n293
*717 dp/rf/n294
*718 dp/rf/n295
*719 dp/rf/n296
*720 dp/rf/n297
*721 dp/rf/n298
*722 dp/rf/n299
*723 dp/rf/n300
*724 dp/rf/n301
*725 dp/rf/n313
*726 dp/rf/n314
*727 dp/rf/n315
*728 dp/alunit/n22
*729 dp/alunit/n23
*730 dp/alunit/n24
*731 dp/alunit/n25
*732 dp/alunit/n26
*733 dp/alunit/n27
*734 dp/alunit/n28
*735 dp/alunit/n29
*736 dp/alunit/n30
*737 dp/alunit/n31
*738 dp/alunit/n32
*739 dp/alunit/n33
*740 dp/alunit/n34
*741 dp/alunit/n35
*742 dp/alunit/n36
*743 dp/alunit/n37
*744 dp/alunit/n38
*745 dp/alunit/n39
*746 dp/alunit/n40
*747 dp/alunit/n1
*748 dp/alunit/n2
*749 dp/alunit/n3
*750 dp/alunit/n4
*751 dp/alunit/n5
*752 dp/alunit/n6
*753 dp/alunit/n7
*754 dp/alunit/n8
*755 dp/alunit/n9
*756 dp/alunit/n10
*757 dp/alunit/n11
*758 dp/alunit/n12
*759 dp/alunit/n13
*760 dp/alunit/n14
*761 dp/alunit/n15
*762 dp/alunit/n16
*763 dp/alunit/n17
*764 dp/alunit/n18
*765 dp/alunit/b2[7]
*766 dp/alunit/b2[6]
*767 dp/alunit/b2[5]
*768 dp/alunit/b2[4]
*769 dp/alunit/b2[3]
*770 dp/alunit/b2[2]
*771 dp/alunit/b2[1]
*772 dp/alunit/b2[0]
*773 dp/alunit/sum[7]
*774 dp/alunit/sum[6]
*775 dp/alunit/sum[5]
*776 dp/alunit/sum[4]
*777 dp/alunit/sum[3]
*778 dp/alunit/sum[2]
*779 dp/alunit/sum[1]
*780 dp/alunit/sum[0]
*781 dp/alunit/add_1_root_add_281_2/carry[7]
*782 dp/alunit/add_1_root_add_281_2/carry[6]
*783 dp/alunit/add_1_root_add_281_2/carry[5]
*784 dp/alunit/add_1_root_add_281_2/carry[4]
*785 dp/alunit/add_1_root_add_281_2/carry[3]
*786 dp/alunit/add_1_root_add_281_2/carry[2]
*787 dp/alunit/add_1_root_add_281_2/carry[1]
*788 dp/zd/n1
*789 dp/zd/n2
*790 CTS_ccl_BUF_clk_G0_L1_1
*791 cont/FE_PHC23_reset
*792 cont/FE_PHC22_reset
*793 cont/FE_OFC20_irwrite_0
*794 cont/state_reg\[0\]
*795 cont/state_reg\[3\]
*796 cont/state_reg\[2\]
*797 cont/U57
*798 cont/U58
*799 cont/U59
*800 cont/U60
*801 cont/U61
*802 cont/U62
*803 cont/U63
*804 cont/U64
*805 cont/U65
*806 cont/U66
*807 cont/U67
*808 cont/U68
*809 cont/state_reg\[1\]
*810 cont/U3
*811 cont/U4
*812 cont/U5
*813 cont/U6
*814 cont/U7
*815 cont/U8
*816 cont/U9
*817 cont/U10
*818 cont/U11
*819 cont/U12
*820 cont/U13
*821 cont/U14
*822 cont/U15
*823 cont/U16
*824 cont/U17
*825 cont/U18
*826 cont/U19
*827 cont/U20
*828 cont/U21
*829 cont/U22
*830 cont/U23
*831 cont/U24
*832 cont/U25
*833 cont/U26
*834 cont/U27
*835 cont/U28
*836 cont/U29
*837 cont/U30
*838 cont/U31
*839 cont/U32
*840 cont/U33
*841 cont/U34
*842 cont/U35
*843 cont/U36
*844 cont/U37
*845 cont/U38
*846 cont/U39
*847 cont/U40
*848 cont/U41
*849 cont/U42
*850 cont/U43
*851 cont/U44
*852 cont/U45
*853 cont/U46
*854 cont/U47
*855 cont/U48
*856 cont/U49
*857 cont/U50
*858 cont/U51
*859 cont/U52
*860 cont/U53
*861 cont/U54
*862 cont/U55
*863 cont/U56
*864 ac/U3
*865 ac/U17
*866 ac/U4
*867 ac/U5
*868 ac/U6
*869 ac/U7
*870 ac/U8
*871 ac/U9
*872 ac/U10
*873 ac/U11
*874 ac/U12
*875 ac/U13
*876 ac/U14
*877 ac/U15
*878 ac/U16
*879 dp/CTS_ccl_BUF_clk_G0_L1_6
*880 dp/CTS_ccl_BUF_clk_G0_L1_5
*881 dp/CTS_ccl_BUF_clk_G0_L1_4
*882 dp/CTS_ccl_BUF_clk_G0_L1_3
*883 dp/CTS_ccl_BUF_clk_G0_L1_2
*884 dp/FE_OFC3_SYNOPSYS_UNCONNECTED__9
*885 dp/FE_OFC2_SYNOPSYS_UNCONNECTED__8
*886 dp/regmux/U1
*887 dp/regmux/U2
*888 dp/regmux/U3
*889 dp/regmux/U4
*890 dp/regmux/U5
*891 dp/regmux/U6
*892 dp/regmux/U7
*893 dp/ir0/q_reg\[7\]
*894 dp/ir0/q_reg\[6\]
*895 dp/ir0/q_reg\[5\]
*896 dp/ir0/q_reg\[4\]
*897 dp/ir0/q_reg\[3\]
*898 dp/ir0/q_reg\[2\]
*899 dp/ir0/q_reg\[1\]
*900 dp/ir0/q_reg\[0\]
*901 dp/ir0/U3
*902 dp/ir0/U5
*903 dp/ir0/U7
*904 dp/ir0/U9
*905 dp/ir0/U11
*906 dp/ir0/U13
*907 dp/ir0/U15
*908 dp/ir0/U17
*909 dp/ir0/U2
*910 dp/ir0/U4
*911 dp/ir0/U6
*912 dp/ir0/U8
*913 dp/ir0/U10
*914 dp/ir0/U12
*915 dp/ir0/U14
*916 dp/ir0/U16
*917 dp/ir1/q_reg\[5\]
*918 dp/ir1/q_reg\[4\]
*919 dp/ir1/q_reg\[3\]
*920 dp/ir1/U9
*921 dp/ir1/U11
*922 dp/ir1/U13
*923 dp/ir1/U8
*924 dp/ir1/U10
*925 dp/ir1/U12
*926 dp/ir2/q_reg\[7\]
*927 dp/ir2/q_reg\[6\]
*928 dp/ir2/q_reg\[5\]
*929 dp/ir2/q_reg\[2\]
*930 dp/ir2/q_reg\[1\]
*931 dp/ir2/q_reg\[0\]
*932 dp/ir2/U3
*933 dp/ir2/U5
*934 dp/ir2/U7
*935 dp/ir2/U13
*936 dp/ir2/U15
*937 dp/ir2/U17
*938 dp/ir2/U2
*939 dp/ir2/U4
*940 dp/ir2/U6
*941 dp/ir2/U12
*942 dp/ir2/U14
*943 dp/ir2/U16
*944 dp/ir3/q_reg\[7\]
*945 dp/ir3/q_reg\[6\]
*946 dp/ir3/q_reg\[5\]
*947 dp/ir3/q_reg\[4\]
*948 dp/ir3/q_reg\[3\]
*949 dp/ir3/q_reg\[2\]
*950 dp/ir3/U7
*951 dp/ir3/U9
*952 dp/ir3/U11
*953 dp/ir3/U13
*954 dp/ir3/U15
*955 dp/ir3/U17
*956 dp/ir3/U6
*957 dp/ir3/U8
*958 dp/ir3/U10
*959 dp/ir3/U12
*960 dp/ir3/U14
*961 dp/ir3/U16
*962 dp/pcreg/q_reg\[7\]
*963 dp/pcreg/q_reg\[6\]
*964 dp/pcreg/q_reg\[5\]
*965 dp/pcreg/q_reg\[4\]
*966 dp/pcreg/q_reg\[3\]
*967 dp/pcreg/q_reg\[2\]
*968 dp/pcreg/q_reg\[1\]
*969 dp/pcreg/q_reg\[0\]
*970 dp/pcreg/U2
*971 dp/pcreg/U3
*972 dp/pcreg/U4
*973 dp/pcreg/U5
*974 dp/pcreg/U6
*975 dp/pcreg/U7
*976 dp/pcreg/U8
*977 dp/pcreg/U9
*978 dp/pcreg/U10
*979 dp/pcreg/U11
*980 dp/pcreg/U12
*981 dp/pcreg/U13
*982 dp/pcreg/U14
*983 dp/pcreg/U15
*984 dp/pcreg/U16
*985 dp/pcreg/U17
*986 dp/pcreg/U18
*987 dp/pcreg/U19
*988 dp/pcreg/U20
*989 dp/mdr/q_reg\[7\]
*990 dp/mdr/q_reg\[6\]
*991 dp/mdr/q_reg\[5\]
*992 dp/mdr/q_reg\[4\]
*993 dp/mdr/q_reg\[3\]
*994 dp/mdr/q_reg\[2\]
*995 dp/mdr/q_reg\[1\]
*996 dp/mdr/q_reg\[0\]
*997 dp/areg/q_reg\[7\]
*998 dp/areg/q_reg\[6\]
*999 dp/areg/q_reg\[5\]
*1000 dp/areg/q_reg\[4\]
*1001 dp/areg/q_reg\[3\]
*1002 dp/areg/q_reg\[2\]
*1003 dp/areg/q_reg\[1\]
*1004 dp/areg/q_reg\[0\]
*1005 dp/wrd/q_reg\[7\]
*1006 dp/wrd/q_reg\[6\]
*1007 dp/wrd/q_reg\[5\]
*1008 dp/wrd/q_reg\[4\]
*1009 dp/wrd/q_reg\[3\]
*1010 dp/wrd/q_reg\[2\]
*1011 dp/wrd/q_reg\[1\]
*1012 dp/wrd/q_reg\[0\]
*1013 dp/res/q_reg\[7\]
*1014 dp/res/q_reg\[6\]
*1015 dp/res/q_reg\[5\]
*1016 dp/res/q_reg\[4\]
*1017 dp/res/q_reg\[3\]
*1018 dp/res/q_reg\[2\]
*1019 dp/res/q_reg\[1\]
*1020 dp/res/q_reg\[0\]
*1021 dp/adrmux/U1
*1022 dp/adrmux/U2
*1023 dp/adrmux/U3
*1024 dp/adrmux/U4
*1025 dp/adrmux/U5
*1026 dp/adrmux/U6
*1027 dp/adrmux/U7
*1028 dp/adrmux/U8
*1029 dp/adrmux/U9
*1030 dp/adrmux/U10
*1031 dp/adrmux/U11
*1032 dp/adrmux/U12
*1033 dp/adrmux/U13
*1034 dp/adrmux/U14
*1035 dp/adrmux/U15
*1036 dp/adrmux/U16
*1037 dp/adrmux/U17
*1038 dp/src1mux/U1
*1039 dp/src1mux/U2
*1040 dp/src1mux/U3
*1041 dp/src1mux/U4
*1042 dp/src1mux/U5
*1043 dp/src1mux/U6
*1044 dp/src1mux/U7
*1045 dp/src1mux/U8
*1046 dp/src1mux/U9
*1047 dp/src1mux/U10
*1048 dp/src1mux/U11
*1049 dp/src1mux/U12
*1050 dp/src1mux/U13
*1051 dp/src1mux/U14
*1052 dp/src1mux/U15
*1053 dp/src1mux/U16
*1054 dp/src1mux/U17
*1055 dp/src2mux/U22
*1056 dp/src2mux/U23
*1057 dp/src2mux/U24
*1058 dp/src2mux/U25
*1059 dp/src2mux/U26
*1060 dp/src2mux/U27
*1061 dp/src2mux/U28
*1062 dp/src2mux/U29
*1063 dp/src2mux/U1
*1064 dp/src2mux/U2
*1065 dp/src2mux/U3
*1066 dp/src2mux/U4
*1067 dp/src2mux/U5
*1068 dp/src2mux/U6
*1069 dp/src2mux/U7
*1070 dp/src2mux/U8
*1071 dp/src2mux/U9
*1072 dp/src2mux/U10
*1073 dp/src2mux/U11
*1074 dp/src2mux/U12
*1075 dp/src2mux/U13
*1076 dp/src2mux/U14
*1077 dp/src2mux/U15
*1078 dp/src2mux/U16
*1079 dp/src2mux/U17
*1080 dp/src2mux/U18
*1081 dp/src2mux/U19
*1082 dp/src2mux/U20
*1083 dp/src2mux/U21
*1084 dp/pcmux/FE_RC_1_0
*1085 dp/pcmux/FE_RC_0_0
*1086 dp/pcmux/U22
*1087 dp/pcmux/U23
*1088 dp/pcmux/U24
*1089 dp/pcmux/U25
*1090 dp/pcmux/U26
*1091 dp/pcmux/U27
*1092 dp/pcmux/U1
*1093 dp/pcmux/U2
*1094 dp/pcmux/U3
*1095 dp/pcmux/U4
*1096 dp/pcmux/U5
*1097 dp/pcmux/U6
*1098 dp/pcmux/U7
*1099 dp/pcmux/U8
*1100 dp/pcmux/U9
*1101 dp/pcmux/U10
*1102 dp/pcmux/U11
*1103 dp/pcmux/U12
*1104 dp/pcmux/U13
*1105 dp/pcmux/U16
*1106 dp/pcmux/U17
*1107 dp/pcmux/U18
*1108 dp/pcmux/U19
*1109 dp/pcmux/U20
*1110 dp/pcmux/U21
*1111 dp/wdmux/U1
*1112 dp/wdmux/U3
*1113 dp/wdmux/U5
*1114 dp/wdmux/U7
*1115 dp/wdmux/U9
*1116 dp/wdmux/U11
*1117 dp/wdmux/U13
*1118 dp/wdmux/U15
*1119 dp/wdmux/U17
*1120 dp/rf/FE_OFC19_n135
*1121 dp/rf/FE_OFC18_n126
*1122 dp/rf/FE_OFC17_n117
*1123 dp/rf/FE_OFC16_n108
*1124 dp/rf/FE_OFC15_n99
*1125 dp/rf/FE_OFC14_n90
*1126 dp/rf/FE_OFC13_n81
*1127 dp/rf/FE_OFC12_n79
*1128 dp/rf/FE_OFC11_wd_0
*1129 dp/rf/FE_OFC10_wd_1
*1130 dp/rf/FE_OFC9_wd_2
*1131 dp/rf/FE_OFC8_wd_3
*1132 dp/rf/FE_OFC7_wd_4
*1133 dp/rf/FE_OFC6_wd_5
*1134 dp/rf/FE_OFC5_wd_6
*1135 dp/rf/FE_OFC4_wd_7
*1136 dp/rf/FE_OFC1_SYNOPSYS_UNCONNECTED__4
*1137 dp/rf/FE_OFC0_SYNOPSYS_UNCONNECTED__3
*1138 dp/rf/RAM_reg\[7\]\[7\]
*1139 dp/rf/RAM_reg\[7\]\[6\]
*1140 dp/rf/RAM_reg\[7\]\[5\]
*1141 dp/rf/RAM_reg\[7\]\[4\]
*1142 dp/rf/RAM_reg\[7\]\[3\]
*1143 dp/rf/RAM_reg\[7\]\[2\]
*1144 dp/rf/RAM_reg\[7\]\[1\]
*1145 dp/rf/RAM_reg\[7\]\[0\]
*1146 dp/rf/RAM_reg\[6\]\[7\]
*1147 dp/rf/RAM_reg\[6\]\[6\]
*1148 dp/rf/RAM_reg\[6\]\[5\]
*1149 dp/rf/RAM_reg\[6\]\[4\]
*1150 dp/rf/RAM_reg\[6\]\[3\]
*1151 dp/rf/RAM_reg\[6\]\[2\]
*1152 dp/rf/RAM_reg\[6\]\[1\]
*1153 dp/rf/RAM_reg\[6\]\[0\]
*1154 dp/rf/RAM_reg\[5\]\[7\]
*1155 dp/rf/RAM_reg\[5\]\[6\]
*1156 dp/rf/RAM_reg\[5\]\[5\]
*1157 dp/rf/RAM_reg\[5\]\[4\]
*1158 dp/rf/RAM_reg\[5\]\[3\]
*1159 dp/rf/RAM_reg\[5\]\[2\]
*1160 dp/rf/RAM_reg\[5\]\[1\]
*1161 dp/rf/RAM_reg\[5\]\[0\]
*1162 dp/rf/RAM_reg\[4\]\[7\]
*1163 dp/rf/RAM_reg\[4\]\[6\]
*1164 dp/rf/RAM_reg\[4\]\[5\]
*1165 dp/rf/RAM_reg\[4\]\[4\]
*1166 dp/rf/RAM_reg\[4\]\[3\]
*1167 dp/rf/RAM_reg\[4\]\[2\]
*1168 dp/rf/RAM_reg\[4\]\[1\]
*1169 dp/rf/RAM_reg\[4\]\[0\]
*1170 dp/rf/RAM_reg\[3\]\[7\]
*1171 dp/rf/RAM_reg\[3\]\[6\]
*1172 dp/rf/RAM_reg\[3\]\[5\]
*1173 dp/rf/RAM_reg\[3\]\[4\]
*1174 dp/rf/RAM_reg\[3\]\[3\]
*1175 dp/rf/RAM_reg\[3\]\[2\]
*1176 dp/rf/RAM_reg\[3\]\[1\]
*1177 dp/rf/RAM_reg\[3\]\[0\]
*1178 dp/rf/RAM_reg\[2\]\[7\]
*1179 dp/rf/RAM_reg\[2\]\[6\]
*1180 dp/rf/RAM_reg\[2\]\[5\]
*1181 dp/rf/RAM_reg\[2\]\[4\]
*1182 dp/rf/RAM_reg\[2\]\[3\]
*1183 dp/rf/RAM_reg\[2\]\[2\]
*1184 dp/rf/RAM_reg\[2\]\[1\]
*1185 dp/rf/RAM_reg\[2\]\[0\]
*1186 dp/rf/RAM_reg\[1\]\[7\]
*1187 dp/rf/RAM_reg\[1\]\[6\]
*1188 dp/rf/RAM_reg\[1\]\[5\]
*1189 dp/rf/RAM_reg\[1\]\[4\]
*1190 dp/rf/RAM_reg\[1\]\[3\]
*1191 dp/rf/RAM_reg\[1\]\[2\]
*1192 dp/rf/RAM_reg\[1\]\[1\]
*1193 dp/rf/RAM_reg\[1\]\[0\]
*1194 dp/rf/RAM_reg\[0\]\[7\]
*1195 dp/rf/RAM_reg\[0\]\[6\]
*1196 dp/rf/RAM_reg\[0\]\[5\]
*1197 dp/rf/RAM_reg\[0\]\[4\]
*1198 dp/rf/RAM_reg\[0\]\[3\]
*1199 dp/rf/RAM_reg\[0\]\[2\]
*1200 dp/rf/RAM_reg\[0\]\[1\]
*1201 dp/rf/RAM_reg\[0\]\[0\]
*1202 dp/rf/U103
*1203 dp/rf/U104
*1204 dp/rf/U105
*1205 dp/rf/U106
*1206 dp/rf/U107
*1207 dp/rf/U108
*1208 dp/rf/U109
*1209 dp/rf/U110
*1210 dp/rf/U111
*1211 dp/rf/U112
*1212 dp/rf/U113
*1213 dp/rf/U114
*1214 dp/rf/U115
*1215 dp/rf/U116
*1216 dp/rf/U117
*1217 dp/rf/U118
*1218 dp/rf/U119
*1219 dp/rf/U120
*1220 dp/rf/U121
*1221 dp/rf/U122
*1222 dp/rf/U123
*1223 dp/rf/U124
*1224 dp/rf/U125
*1225 dp/rf/U126
*1226 dp/rf/U127
*1227 dp/rf/U128
*1228 dp/rf/U129
*1229 dp/rf/U130
*1230 dp/rf/U131
*1231 dp/rf/U132
*1232 dp/rf/U133
*1233 dp/rf/U134
*1234 dp/rf/U135
*1235 dp/rf/U136
*1236 dp/rf/U137
*1237 dp/rf/U138
*1238 dp/rf/U139
*1239 dp/rf/U140
*1240 dp/rf/U141
*1241 dp/rf/U142
*1242 dp/rf/U143
*1243 dp/rf/U144
*1244 dp/rf/U145
*1245 dp/rf/U146
*1246 dp/rf/U147
*1247 dp/rf/U148
*1248 dp/rf/U149
*1249 dp/rf/U150
*1250 dp/rf/U151
*1251 dp/rf/U152
*1252 dp/rf/U153
*1253 dp/rf/U154
*1254 dp/rf/U155
*1255 dp/rf/U156
*1256 dp/rf/U157
*1257 dp/rf/U158
*1258 dp/rf/U159
*1259 dp/rf/U160
*1260 dp/rf/U161
*1261 dp/rf/U162
*1262 dp/rf/U163
*1263 dp/rf/U164
*1264 dp/rf/U165
*1265 dp/rf/U166
*1266 dp/rf/U2
*1267 dp/rf/U3
*1268 dp/rf/U4
*1269 dp/rf/U5
*1270 dp/rf/U6
*1271 dp/rf/U7
*1272 dp/rf/U8
*1273 dp/rf/U9
*1274 dp/rf/U10
*1275 dp/rf/U11
*1276 dp/rf/U12
*1277 dp/rf/U17
*1278 dp/rf/U18
*1279 dp/rf/U19
*1280 dp/rf/U20
*1281 dp/rf/U21
*1282 dp/rf/U22
*1283 dp/rf/U23
*1284 dp/rf/U24
*1285 dp/rf/U25
*1286 dp/rf/U26
*1287 dp/rf/U27
*1288 dp/rf/U28
*1289 dp/rf/U29
*1290 dp/rf/U30
*1291 dp/rf/U31
*1292 dp/rf/U32
*1293 dp/rf/U33
*1294 dp/rf/U34
*1295 dp/rf/U35
*1296 dp/rf/U36
*1297 dp/rf/U37
*1298 dp/rf/U38
*1299 dp/rf/U39
*1300 dp/rf/U40
*1301 dp/rf/U41
*1302 dp/rf/U42
*1303 dp/rf/U43
*1304 dp/rf/U44
*1305 dp/rf/U45
*1306 dp/rf/U46
*1307 dp/rf/U47
*1308 dp/rf/U48
*1309 dp/rf/U49
*1310 dp/rf/U50
*1311 dp/rf/U51
*1312 dp/rf/U52
*1313 dp/rf/U53
*1314 dp/rf/U54
*1315 dp/rf/U55
*1316 dp/rf/U56
*1317 dp/rf/U57
*1318 dp/rf/U58
*1319 dp/rf/U59
*1320 dp/rf/U60
*1321 dp/rf/U61
*1322 dp/rf/U62
*1323 dp/rf/U63
*1324 dp/rf/U64
*1325 dp/rf/U65
*1326 dp/rf/U66
*1327 dp/rf/U67
*1328 dp/rf/U68
*1329 dp/rf/U69
*1330 dp/rf/U70
*1331 dp/rf/U71
*1332 dp/rf/U72
*1333 dp/rf/U73
*1334 dp/rf/U74
*1335 dp/rf/U75
*1336 dp/rf/U76
*1337 dp/rf/U77
*1338 dp/rf/U78
*1339 dp/rf/U79
*1340 dp/rf/U80
*1341 dp/rf/U91
*1342 dp/rf/U92
*1343 dp/rf/U93
*1344 dp/rf/U94
*1345 dp/rf/U95
*1346 dp/rf/U96
*1347 dp/rf/U97
*1348 dp/rf/U98
*1349 dp/rf/U99
*1350 dp/rf/U100
*1351 dp/rf/U101
*1352 dp/rf/U102
*1353 dp/rf/U167
*1354 dp/rf/U168
*1355 dp/rf/U169
*1356 dp/rf/U170
*1357 dp/rf/U171
*1358 dp/rf/U172
*1359 dp/rf/U173
*1360 dp/rf/U174
*1361 dp/rf/U175
*1362 dp/rf/U176
*1363 dp/rf/U177
*1364 dp/rf/U178
*1365 dp/rf/U179
*1366 dp/rf/U180
*1367 dp/rf/U181
*1368 dp/rf/U182
*1369 dp/rf/U183
*1370 dp/rf/U184
*1371 dp/rf/U185
*1372 dp/rf/U186
*1373 dp/rf/U187
*1374 dp/rf/U188
*1375 dp/rf/U189
*1376 dp/rf/U190
*1377 dp/rf/U191
*1378 dp/rf/U192
*1379 dp/rf/U193
*1380 dp/rf/U194
*1381 dp/rf/U195
*1382 dp/rf/U196
*1383 dp/rf/U197
*1384 dp/rf/U198
*1385 dp/rf/U199
*1386 dp/rf/U200
*1387 dp/rf/U201
*1388 dp/rf/U202
*1389 dp/rf/U203
*1390 dp/rf/U204
*1391 dp/rf/U205
*1392 dp/rf/U206
*1393 dp/rf/U207
*1394 dp/rf/U208
*1395 dp/rf/U209
*1396 dp/rf/U210
*1397 dp/rf/U211
*1398 dp/rf/U212
*1399 dp/rf/U213
*1400 dp/rf/U214
*1401 dp/rf/U215
*1402 dp/rf/U216
*1403 dp/rf/U217
*1404 dp/rf/U218
*1405 dp/rf/U219
*1406 dp/rf/U220
*1407 dp/rf/U221
*1408 dp/rf/U222
*1409 dp/rf/U223
*1410 dp/rf/U224
*1411 dp/rf/U225
*1412 dp/rf/U226
*1413 dp/rf/U227
*1414 dp/rf/U228
*1415 dp/rf/U229
*1416 dp/rf/U230
*1417 dp/rf/U231
*1418 dp/rf/U232
*1419 dp/rf/U233
*1420 dp/rf/U234
*1421 dp/rf/U235
*1422 dp/rf/U236
*1423 dp/rf/U237
*1424 dp/rf/U238
*1425 dp/rf/U239
*1426 dp/rf/U240
*1427 dp/rf/U241
*1428 dp/rf/U242
*1429 dp/rf/U243
*1430 dp/rf/U244
*1431 dp/rf/U245
*1432 dp/rf/U246
*1433 dp/rf/U247
*1434 dp/rf/U248
*1435 dp/rf/U249
*1436 dp/rf/U250
*1437 dp/rf/U251
*1438 dp/rf/U252
*1439 dp/rf/U253
*1440 dp/rf/U254
*1441 dp/rf/U255
*1442 dp/rf/U256
*1443 dp/rf/U257
*1444 dp/rf/U258
*1445 dp/rf/U259
*1446 dp/rf/U260
*1447 dp/rf/U261
*1448 dp/rf/U262
*1449 dp/rf/U263
*1450 dp/rf/U264
*1451 dp/rf/U265
*1452 dp/rf/U266
*1453 dp/rf/U267
*1454 dp/rf/U268
*1455 dp/rf/U269
*1456 dp/rf/U270
*1457 dp/rf/U271
*1458 dp/rf/U272
*1459 dp/rf/U273
*1460 dp/rf/U274
*1461 dp/rf/U275
*1462 dp/rf/U276
*1463 dp/rf/U277
*1464 dp/rf/U278
*1465 dp/rf/U279
*1466 dp/rf/U280
*1467 dp/rf/U281
*1468 dp/rf/U282
*1469 dp/rf/U283
*1470 dp/rf/U284
*1471 dp/alunit/U38
*1472 dp/alunit/U39
*1473 dp/alunit/U40
*1474 dp/alunit/U41
*1475 dp/alunit/U42
*1476 dp/alunit/U43
*1477 dp/alunit/U44
*1478 dp/alunit/U45
*1479 dp/alunit/U46
*1480 dp/alunit/U47
*1481 dp/alunit/U48
*1482 dp/alunit/U49
*1483 dp/alunit/U50
*1484 dp/alunit/U51
*1485 dp/alunit/U52
*1486 dp/alunit/U53
*1487 dp/alunit/U54
*1488 dp/alunit/U2
*1489 dp/alunit/U3
*1490 dp/alunit/U4
*1491 dp/alunit/U5
*1492 dp/alunit/U6
*1493 dp/alunit/U7
*1494 dp/alunit/U8
*1495 dp/alunit/U9
*1496 dp/alunit/U10
*1497 dp/alunit/U11
*1498 dp/alunit/U12
*1499 dp/alunit/U13
*1500 dp/alunit/U14
*1501 dp/alunit/U15
*1502 dp/alunit/U16
*1503 dp/alunit/U17
*1504 dp/alunit/U18
*1505 dp/alunit/U19
*1506 dp/alunit/U20
*1507 dp/alunit/U21
*1508 dp/alunit/U22
*1509 dp/alunit/U23
*1510 dp/alunit/U24
*1511 dp/alunit/U25
*1512 dp/alunit/U26
*1513 dp/alunit/U27
*1514 dp/alunit/U28
*1515 dp/alunit/U29
*1516 dp/alunit/U30
*1517 dp/alunit/U31
*1518 dp/alunit/U32
*1519 dp/alunit/U33
*1520 dp/alunit/U34
*1521 dp/alunit/U35
*1522 dp/alunit/U36
*1523 dp/alunit/U37
*1524 dp/alunit/add_1_root_add_281_2/U1_7
*1525 dp/alunit/add_1_root_add_281_2/U1_6
*1526 dp/alunit/add_1_root_add_281_2/U1_5
*1527 dp/alunit/add_1_root_add_281_2/U1_4
*1528 dp/alunit/add_1_root_add_281_2/U1_3
*1529 dp/alunit/add_1_root_add_281_2/U1_2
*1530 dp/alunit/add_1_root_add_281_2/U1_1
*1531 dp/alunit/add_1_root_add_281_2/U1_0
*1532 dp/zd/U1
*1533 dp/zd/U2
*1534 dp/zd/U3


*PORTS

*58 I *C 89.775 179.9
*59 I *C 89.585 179.9
*34 I *C 0 89.53
*35 I *C 0 89.67
*36 I *C 0 89.81
*37 I *C 88.635 179.9
*38 I *C 88.825 179.9
*39 I *C 89.015 179.9
*40 I *C 89.205 179.9
*41 I *C 89.395 179.9
*60 O *C 0 89.39
*61 O *C 0 89.25
*42 O *C 91.105 0
*43 O *C 90.915 0
*44 O *C 90.725 0
*45 O *C 90.535 0
*46 O *C 90.345 0
*47 O *C 90.155 0
*48 O *C 0 88.97
*49 O *C 0 89.11
*50 O *C 179.93 90.93
*51 O *C 179.93 90.79
*52 O *C 179.93 90.65
*53 O *C 179.93 90.51
*54 O *C 179.93 90.37
*55 O *C 179.93 90.23
*56 O *C 179.93 90.09
*57 O *C 91.295 0


*D_NET *756 0.00016104

*CONN
*I *1493:ZN O *C 100.85 75.33 *L 0 *D INV_X1
*I *1490:B2 I *C 99.12 75.705 *L 0.00156 *D OAI221_X1

*CAP
1 *1493:ZN 8.052e-05
2 *1490:B2 8.052e-05

*RES
1 *1490:B2 *1493:ZN 9.28286
*END

*D_NET *520 0.0002706

*CONN
*I *1314:A I *C 118.565 86.905 *L 0.00161 *D OAI21_X1
*I *1225:ZN O *C 121.16 86.735 *L 0 *D NAND2_X1

*CAP
1 *1314:A 5.368e-05
2 *1225:ZN 7.013e-05
3 *520:2 8.162e-05
4 *520:3 6.517e-05

*RES
1 *1314:A *520:3 6.18857
2 *520:2 *520:3 1.52
3 *520:2 *1225:ZN 6.18857
*END

*D_NET *166 0.00016104

*CONN
*I *873:ZN O *C 92.87 94.93 *L 0 *D INV_X1
*I *872:A1 I *C 91.015 95.305 *L 0.00164 *D NOR2_X1

*CAP
1 *873:ZN 8.052e-05
2 *872:A1 8.052e-05

*RES
1 *872:A1 *873:ZN 9.28286
*END

*D_NET *554 0.00023512

*CONN
*I *1336:A I *C 116.465 99.855 *L 0.00161 *D OAI21_X1